
---------- Begin Simulation Statistics ----------
sim_seconds                                  2.412902                       # Number of seconds simulated
sim_ticks                                2412901515500                       # Number of ticks simulated
final_tick                               2412901515500                       # Number of ticks from beginning of simulation (restored from checkpoints and never reset)
sim_freq                                 1000000000000                       # Frequency of simulated ticks
host_inst_rate                                 491785                       # Simulator instruction rate (inst/s)
host_op_rate                                   809839                       # Simulator op (including micro ops) rate (op/s)
host_tick_rate                             2373258557                       # Simulator tick rate (ticks/s)
host_mem_usage                                 669532                       # Number of bytes of host memory used
host_seconds                                  1016.70                       # Real time elapsed on the host
sim_insts                                   500000000                       # Number of instructions simulated
sim_ops                                     823366692                       # Number of ops (including micro ops) simulated
system.voltage_domain.voltage                       1                       # Voltage in Volts
system.clk_domain.clock                          1000                       # Clock period in ticks
system.mem_ctrls.pwrStateResidencyTicks::UNDEFINED 2412901515500                       # Cumulative time (in ticks) in various power states
system.mem_ctrls.bytes_read::cpu.inst          127168                       # Number of bytes read from this memory
system.mem_ctrls.bytes_read::cpu.data       533384672                       # Number of bytes read from this memory
system.mem_ctrls.bytes_read::total          533511840                       # Number of bytes read from this memory
system.mem_ctrls.bytes_inst_read::cpu.inst       127168                       # Number of instructions bytes read from this memory
system.mem_ctrls.bytes_inst_read::total        127168                       # Number of instructions bytes read from this memory
system.mem_ctrls.bytes_written::writebacks    532017536                       # Number of bytes written to this memory
system.mem_ctrls.bytes_written::total       532017536                       # Number of bytes written to this memory
system.mem_ctrls.num_reads::cpu.inst             3974                       # Number of read requests responded to by this memory
system.mem_ctrls.num_reads::cpu.data         16668271                       # Number of read requests responded to by this memory
system.mem_ctrls.num_reads::total            16672245                       # Number of read requests responded to by this memory
system.mem_ctrls.num_writes::writebacks      16625548                       # Number of write requests responded to by this memory
system.mem_ctrls.num_writes::total           16625548                       # Number of write requests responded to by this memory
system.mem_ctrls.bw_read::cpu.inst              52703                       # Total read bandwidth from this memory (bytes/s)
system.mem_ctrls.bw_read::cpu.data          221055302                       # Total read bandwidth from this memory (bytes/s)
system.mem_ctrls.bw_read::total             221108005                       # Total read bandwidth from this memory (bytes/s)
system.mem_ctrls.bw_inst_read::cpu.inst         52703                       # Instruction read bandwidth from this memory (bytes/s)
system.mem_ctrls.bw_inst_read::total            52703                       # Instruction read bandwidth from this memory (bytes/s)
system.mem_ctrls.bw_write::writebacks       220488707                       # Write bandwidth from this memory (bytes/s)
system.mem_ctrls.bw_write::total            220488707                       # Write bandwidth from this memory (bytes/s)
system.mem_ctrls.bw_total::writebacks       220488707                       # Total bandwidth to/from this memory (bytes/s)
system.mem_ctrls.bw_total::cpu.inst             52703                       # Total bandwidth to/from this memory (bytes/s)
system.mem_ctrls.bw_total::cpu.data         221055302                       # Total bandwidth to/from this memory (bytes/s)
system.mem_ctrls.bw_total::total            441596712                       # Total bandwidth to/from this memory (bytes/s)
system.mem_ctrls.readReqs                    16672245                       # Number of read requests accepted
system.mem_ctrls.writeReqs                   16625548                       # Number of write requests accepted
system.mem_ctrls.readBursts                  16672245                       # Number of DRAM read bursts, including those serviced by the write queue
system.mem_ctrls.writeBursts                 16625548                       # Number of DRAM write bursts, including those merged in the write queue
system.mem_ctrls.bytesReadDRAM             1067022656                       # Total number of bytes read from DRAM
system.mem_ctrls.bytesReadWrQ                    1024                       # Total number of bytes read from write queue
system.mem_ctrls.bytesWritten               534574272                       # Total number of bytes written to DRAM
system.mem_ctrls.bytesReadSys               533511840                       # Total read bytes from the system interface side
system.mem_ctrls.bytesWrittenSys            532017536                       # Total written bytes from the system interface side
system.mem_ctrls.servicedByWrQ                     16                       # Number of DRAM read bursts serviced by the write queue
system.mem_ctrls.mergedWrBursts               8272798                       # Number of DRAM write bursts merged with an existing one
system.mem_ctrls.neitherReadNorWriteReqs            0                       # Number of requests that are neither read nor write
system.mem_ctrls.perBankRdBursts::0           1041807                       # Per bank write bursts
system.mem_ctrls.perBankRdBursts::1           1041452                       # Per bank write bursts
system.mem_ctrls.perBankRdBursts::2           1041694                       # Per bank write bursts
system.mem_ctrls.perBankRdBursts::3           1042318                       # Per bank write bursts
system.mem_ctrls.perBankRdBursts::4           1042213                       # Per bank write bursts
system.mem_ctrls.perBankRdBursts::5           1042263                       # Per bank write bursts
system.mem_ctrls.perBankRdBursts::6           1041817                       # Per bank write bursts
system.mem_ctrls.perBankRdBursts::7           1041823                       # Per bank write bursts
system.mem_ctrls.perBankRdBursts::8           1041282                       # Per bank write bursts
system.mem_ctrls.perBankRdBursts::9           1041737                       # Per bank write bursts
system.mem_ctrls.perBankRdBursts::10          1042025                       # Per bank write bursts
system.mem_ctrls.perBankRdBursts::11          1042568                       # Per bank write bursts
system.mem_ctrls.perBankRdBursts::12          1042500                       # Per bank write bursts
system.mem_ctrls.perBankRdBursts::13          1042328                       # Per bank write bursts
system.mem_ctrls.perBankRdBursts::14          1042118                       # Per bank write bursts
system.mem_ctrls.perBankRdBursts::15          1042284                       # Per bank write bursts
system.mem_ctrls.perBankWrBursts::0            521929                       # Per bank write bursts
system.mem_ctrls.perBankWrBursts::1            521705                       # Per bank write bursts
system.mem_ctrls.perBankWrBursts::2            521925                       # Per bank write bursts
system.mem_ctrls.perBankWrBursts::3            522299                       # Per bank write bursts
system.mem_ctrls.perBankWrBursts::4            522133                       # Per bank write bursts
system.mem_ctrls.perBankWrBursts::5            522291                       # Per bank write bursts
system.mem_ctrls.perBankWrBursts::6            521921                       # Per bank write bursts
system.mem_ctrls.perBankWrBursts::7            522018                       # Per bank write bursts
system.mem_ctrls.perBankWrBursts::8            521716                       # Per bank write bursts
system.mem_ctrls.perBankWrBursts::9            521931                       # Per bank write bursts
system.mem_ctrls.perBankWrBursts::10           522090                       # Per bank write bursts
system.mem_ctrls.perBankWrBursts::11           522193                       # Per bank write bursts
system.mem_ctrls.perBankWrBursts::12           522232                       # Per bank write bursts
system.mem_ctrls.perBankWrBursts::13           522219                       # Per bank write bursts
system.mem_ctrls.perBankWrBursts::14           522049                       # Per bank write bursts
system.mem_ctrls.perBankWrBursts::15           522072                       # Per bank write bursts
system.mem_ctrls.numRdRetry                         0                       # Number of times read queue was full causing retry
system.mem_ctrls.numWrRetry                         0                       # Number of times write queue was full causing retry
system.mem_ctrls.totGap                  2412877060500                       # Total gap between requests
system.mem_ctrls.readPktSize::0                     0                       # Read request sizes (log2)
system.mem_ctrls.readPktSize::1                     0                       # Read request sizes (log2)
system.mem_ctrls.readPktSize::2                     0                       # Read request sizes (log2)
system.mem_ctrls.readPktSize::3                     0                       # Read request sizes (log2)
system.mem_ctrls.readPktSize::4                     0                       # Read request sizes (log2)
system.mem_ctrls.readPktSize::5              16672245                       # Read request sizes (log2)
system.mem_ctrls.readPktSize::6                     0                       # Read request sizes (log2)
system.mem_ctrls.writePktSize::0                    0                       # Write request sizes (log2)
system.mem_ctrls.writePktSize::1                    0                       # Write request sizes (log2)
system.mem_ctrls.writePktSize::2                    0                       # Write request sizes (log2)
system.mem_ctrls.writePktSize::3                    0                       # Write request sizes (log2)
system.mem_ctrls.writePktSize::4                    0                       # Write request sizes (log2)
system.mem_ctrls.writePktSize::5             16625548                       # Write request sizes (log2)
system.mem_ctrls.writePktSize::6                    0                       # Write request sizes (log2)
system.mem_ctrls.rdQLenPdf::0                16672228                       # What read queue length does an incoming req see
system.mem_ctrls.rdQLenPdf::1                       1                       # What read queue length does an incoming req see
system.mem_ctrls.rdQLenPdf::2                       0                       # What read queue length does an incoming req see
system.mem_ctrls.rdQLenPdf::3                       0                       # What read queue length does an incoming req see
system.mem_ctrls.rdQLenPdf::4                       0                       # What read queue length does an incoming req see
system.mem_ctrls.rdQLenPdf::5                       0                       # What read queue length does an incoming req see
system.mem_ctrls.rdQLenPdf::6                       0                       # What read queue length does an incoming req see
system.mem_ctrls.rdQLenPdf::7                       0                       # What read queue length does an incoming req see
system.mem_ctrls.rdQLenPdf::8                       0                       # What read queue length does an incoming req see
system.mem_ctrls.rdQLenPdf::9                       0                       # What read queue length does an incoming req see
system.mem_ctrls.rdQLenPdf::10                      0                       # What read queue length does an incoming req see
system.mem_ctrls.rdQLenPdf::11                      0                       # What read queue length does an incoming req see
system.mem_ctrls.rdQLenPdf::12                      0                       # What read queue length does an incoming req see
system.mem_ctrls.rdQLenPdf::13                      0                       # What read queue length does an incoming req see
system.mem_ctrls.rdQLenPdf::14                      0                       # What read queue length does an incoming req see
system.mem_ctrls.rdQLenPdf::15                      0                       # What read queue length does an incoming req see
system.mem_ctrls.rdQLenPdf::16                      0                       # What read queue length does an incoming req see
system.mem_ctrls.rdQLenPdf::17                      0                       # What read queue length does an incoming req see
system.mem_ctrls.rdQLenPdf::18                      0                       # What read queue length does an incoming req see
system.mem_ctrls.rdQLenPdf::19                      0                       # What read queue length does an incoming req see
system.mem_ctrls.rdQLenPdf::20                      0                       # What read queue length does an incoming req see
system.mem_ctrls.rdQLenPdf::21                      0                       # What read queue length does an incoming req see
system.mem_ctrls.rdQLenPdf::22                      0                       # What read queue length does an incoming req see
system.mem_ctrls.rdQLenPdf::23                      0                       # What read queue length does an incoming req see
system.mem_ctrls.rdQLenPdf::24                      0                       # What read queue length does an incoming req see
system.mem_ctrls.rdQLenPdf::25                      0                       # What read queue length does an incoming req see
system.mem_ctrls.rdQLenPdf::26                      0                       # What read queue length does an incoming req see
system.mem_ctrls.rdQLenPdf::27                      0                       # What read queue length does an incoming req see
system.mem_ctrls.rdQLenPdf::28                      0                       # What read queue length does an incoming req see
system.mem_ctrls.rdQLenPdf::29                      0                       # What read queue length does an incoming req see
system.mem_ctrls.rdQLenPdf::30                      0                       # What read queue length does an incoming req see
system.mem_ctrls.rdQLenPdf::31                      0                       # What read queue length does an incoming req see
system.mem_ctrls.wrQLenPdf::0                       1                       # What write queue length does an incoming req see
system.mem_ctrls.wrQLenPdf::1                       1                       # What write queue length does an incoming req see
system.mem_ctrls.wrQLenPdf::2                       1                       # What write queue length does an incoming req see
system.mem_ctrls.wrQLenPdf::3                       1                       # What write queue length does an incoming req see
system.mem_ctrls.wrQLenPdf::4                       1                       # What write queue length does an incoming req see
system.mem_ctrls.wrQLenPdf::5                       1                       # What write queue length does an incoming req see
system.mem_ctrls.wrQLenPdf::6                       1                       # What write queue length does an incoming req see
system.mem_ctrls.wrQLenPdf::7                       1                       # What write queue length does an incoming req see
system.mem_ctrls.wrQLenPdf::8                       1                       # What write queue length does an incoming req see
system.mem_ctrls.wrQLenPdf::9                       1                       # What write queue length does an incoming req see
system.mem_ctrls.wrQLenPdf::10                      1                       # What write queue length does an incoming req see
system.mem_ctrls.wrQLenPdf::11                      1                       # What write queue length does an incoming req see
system.mem_ctrls.wrQLenPdf::12                      1                       # What write queue length does an incoming req see
system.mem_ctrls.wrQLenPdf::13                      1                       # What write queue length does an incoming req see
system.mem_ctrls.wrQLenPdf::14                      1                       # What write queue length does an incoming req see
system.mem_ctrls.wrQLenPdf::15                   3891                       # What write queue length does an incoming req see
system.mem_ctrls.wrQLenPdf::16                   4671                       # What write queue length does an incoming req see
system.mem_ctrls.wrQLenPdf::17                 521442                       # What write queue length does an incoming req see
system.mem_ctrls.wrQLenPdf::18                 521506                       # What write queue length does an incoming req see
system.mem_ctrls.wrQLenPdf::19                 521506                       # What write queue length does an incoming req see
system.mem_ctrls.wrQLenPdf::20                 521506                       # What write queue length does an incoming req see
system.mem_ctrls.wrQLenPdf::21                 521506                       # What write queue length does an incoming req see
system.mem_ctrls.wrQLenPdf::22                 521506                       # What write queue length does an incoming req see
system.mem_ctrls.wrQLenPdf::23                 521506                       # What write queue length does an incoming req see
system.mem_ctrls.wrQLenPdf::24                 521508                       # What write queue length does an incoming req see
system.mem_ctrls.wrQLenPdf::25                 521510                       # What write queue length does an incoming req see
system.mem_ctrls.wrQLenPdf::26                 521509                       # What write queue length does an incoming req see
system.mem_ctrls.wrQLenPdf::27                 521512                       # What write queue length does an incoming req see
system.mem_ctrls.wrQLenPdf::28                 521514                       # What write queue length does an incoming req see
system.mem_ctrls.wrQLenPdf::29                 521617                       # What write queue length does an incoming req see
system.mem_ctrls.wrQLenPdf::30                 521513                       # What write queue length does an incoming req see
system.mem_ctrls.wrQLenPdf::31                 521507                       # What write queue length does an incoming req see
system.mem_ctrls.wrQLenPdf::32                 521505                       # What write queue length does an incoming req see
system.mem_ctrls.wrQLenPdf::33                      0                       # What write queue length does an incoming req see
system.mem_ctrls.wrQLenPdf::34                      0                       # What write queue length does an incoming req see
system.mem_ctrls.wrQLenPdf::35                      0                       # What write queue length does an incoming req see
system.mem_ctrls.wrQLenPdf::36                      0                       # What write queue length does an incoming req see
system.mem_ctrls.wrQLenPdf::37                      0                       # What write queue length does an incoming req see
system.mem_ctrls.wrQLenPdf::38                      0                       # What write queue length does an incoming req see
system.mem_ctrls.wrQLenPdf::39                      0                       # What write queue length does an incoming req see
system.mem_ctrls.wrQLenPdf::40                      0                       # What write queue length does an incoming req see
system.mem_ctrls.wrQLenPdf::41                      0                       # What write queue length does an incoming req see
system.mem_ctrls.wrQLenPdf::42                      0                       # What write queue length does an incoming req see
system.mem_ctrls.wrQLenPdf::43                      0                       # What write queue length does an incoming req see
system.mem_ctrls.wrQLenPdf::44                      0                       # What write queue length does an incoming req see
system.mem_ctrls.wrQLenPdf::45                      0                       # What write queue length does an incoming req see
system.mem_ctrls.wrQLenPdf::46                      0                       # What write queue length does an incoming req see
system.mem_ctrls.wrQLenPdf::47                      0                       # What write queue length does an incoming req see
system.mem_ctrls.wrQLenPdf::48                      0                       # What write queue length does an incoming req see
system.mem_ctrls.wrQLenPdf::49                      0                       # What write queue length does an incoming req see
system.mem_ctrls.wrQLenPdf::50                      0                       # What write queue length does an incoming req see
system.mem_ctrls.wrQLenPdf::51                      0                       # What write queue length does an incoming req see
system.mem_ctrls.wrQLenPdf::52                      0                       # What write queue length does an incoming req see
system.mem_ctrls.wrQLenPdf::53                      0                       # What write queue length does an incoming req see
system.mem_ctrls.wrQLenPdf::54                      0                       # What write queue length does an incoming req see
system.mem_ctrls.wrQLenPdf::55                      0                       # What write queue length does an incoming req see
system.mem_ctrls.wrQLenPdf::56                      0                       # What write queue length does an incoming req see
system.mem_ctrls.wrQLenPdf::57                      0                       # What write queue length does an incoming req see
system.mem_ctrls.wrQLenPdf::58                      0                       # What write queue length does an incoming req see
system.mem_ctrls.wrQLenPdf::59                      0                       # What write queue length does an incoming req see
system.mem_ctrls.wrQLenPdf::60                      0                       # What write queue length does an incoming req see
system.mem_ctrls.wrQLenPdf::61                      0                       # What write queue length does an incoming req see
system.mem_ctrls.wrQLenPdf::62                      0                       # What write queue length does an incoming req see
system.mem_ctrls.wrQLenPdf::63                      0                       # What write queue length does an incoming req see
system.mem_ctrls.bytesPerActivate::samples      2016017                       # Bytes accessed per row activation
system.mem_ctrls.bytesPerActivate::mean    794.436222                       # Bytes accessed per row activation
system.mem_ctrls.bytesPerActivate::gmean   620.994617                       # Bytes accessed per row activation
system.mem_ctrls.bytesPerActivate::stdev   352.157442                       # Bytes accessed per row activation
system.mem_ctrls.bytesPerActivate::0-127       208370     10.34%     10.34% # Bytes accessed per row activation
system.mem_ctrls.bytesPerActivate::128-255        79619      3.95%     14.29% # Bytes accessed per row activation
system.mem_ctrls.bytesPerActivate::256-383        73022      3.62%     17.91% # Bytes accessed per row activation
system.mem_ctrls.bytesPerActivate::384-511        84684      4.20%     22.11% # Bytes accessed per row activation
system.mem_ctrls.bytesPerActivate::512-639        90854      4.51%     26.61% # Bytes accessed per row activation
system.mem_ctrls.bytesPerActivate::640-767        67672      3.36%     29.97% # Bytes accessed per row activation
system.mem_ctrls.bytesPerActivate::768-895        58532      2.90%     32.87% # Bytes accessed per row activation
system.mem_ctrls.bytesPerActivate::896-1023        86730      4.30%     37.18% # Bytes accessed per row activation
system.mem_ctrls.bytesPerActivate::1024-1151      1266534     62.82%    100.00% # Bytes accessed per row activation
system.mem_ctrls.bytesPerActivate::total      2016017                       # Bytes accessed per row activation
system.mem_ctrls.rdPerTurnAround::samples       521505                       # Reads before turning the bus around for writes
system.mem_ctrls.rdPerTurnAround::mean      31.969419                       # Reads before turning the bus around for writes
system.mem_ctrls.rdPerTurnAround::gmean     31.882351                       # Reads before turning the bus around for writes
system.mem_ctrls.rdPerTurnAround::stdev     32.644796                       # Reads before turning the bus around for writes
system.mem_ctrls.rdPerTurnAround::0-1023       521502    100.00%    100.00% # Reads before turning the bus around for writes
system.mem_ctrls.rdPerTurnAround::2048-3071            2      0.00%    100.00% # Reads before turning the bus around for writes
system.mem_ctrls.rdPerTurnAround::22528-23551            1      0.00%    100.00% # Reads before turning the bus around for writes
system.mem_ctrls.rdPerTurnAround::total        521505                       # Reads before turning the bus around for writes
system.mem_ctrls.wrPerTurnAround::samples       521505                       # Writes before turning the bus around for reads
system.mem_ctrls.wrPerTurnAround::mean      16.016573                       # Writes before turning the bus around for reads
system.mem_ctrls.wrPerTurnAround::gmean     16.015654                       # Writes before turning the bus around for reads
system.mem_ctrls.wrPerTurnAround::stdev      0.178422                       # Writes before turning the bus around for reads
system.mem_ctrls.wrPerTurnAround::16           516833     99.10%     99.10% # Writes before turning the bus around for reads
system.mem_ctrls.wrPerTurnAround::17              780      0.15%     99.25% # Writes before turning the bus around for reads
system.mem_ctrls.wrPerTurnAround::18             3814      0.73%     99.99% # Writes before turning the bus around for reads
system.mem_ctrls.wrPerTurnAround::19               77      0.01%    100.00% # Writes before turning the bus around for reads
system.mem_ctrls.wrPerTurnAround::20                1      0.00%    100.00% # Writes before turning the bus around for reads
system.mem_ctrls.wrPerTurnAround::total        521505                       # Writes before turning the bus around for reads
system.mem_ctrls.totQLat                 247721964500                       # Total ticks spent queuing
system.mem_ctrls.totMemAccLat            560326258250                       # Total ticks spent from burst creation until serviced by the DRAM
system.mem_ctrls.totBusLat                83361145000                       # Total ticks spent in databus transfers
system.mem_ctrls.avgQLat                     14858.36                       # Average queueing delay per DRAM burst
system.mem_ctrls.avgBusLat                    5000.00                       # Average bus latency per DRAM burst
system.mem_ctrls.avgMemAccLat                33608.36                       # Average memory access latency per DRAM burst
system.mem_ctrls.avgRdBW                       442.22                       # Average DRAM read bandwidth in MiByte/s
system.mem_ctrls.avgWrBW                       221.55                       # Average achieved write bandwidth in MiByte/s
system.mem_ctrls.avgRdBWSys                    221.11                       # Average system read bandwidth in MiByte/s
system.mem_ctrls.avgWrBWSys                    220.49                       # Average system write bandwidth in MiByte/s
system.mem_ctrls.peakBW                      12800.00                       # Theoretical peak bandwidth in MiByte/s
system.mem_ctrls.busUtil                         5.19                       # Data bus utilization in percentage
system.mem_ctrls.busUtilRead                     3.45                       # Data bus utilization in percentage for reads
system.mem_ctrls.busUtilWrite                    1.73                       # Data bus utilization in percentage for writes
system.mem_ctrls.avgRdQLen                       1.00                       # Average read queue length when enqueuing
system.mem_ctrls.avgWrQLen                      25.33                       # Average write queue length when enqueuing
system.mem_ctrls.readRowHits                 15306629                       # Number of row buffer hits during reads
system.mem_ctrls.writeRowHits                 7702306                       # Number of row buffer hits during writes
system.mem_ctrls.readRowHitRate                 91.81                       # Row buffer hit rate for reads
system.mem_ctrls.writeRowHitRate                92.21                       # Row buffer hit rate for writes
system.mem_ctrls.avgGap                      72463.57                       # Average gap between requests
system.mem_ctrls.pageHitRate                    91.94                       # Row buffer hit rate, read and write combined
system.mem_ctrls_0.actEnergy               7202360760                       # Energy for activate commands per rank (pJ)
system.mem_ctrls_0.preEnergy               3828145530                       # Energy for precharge commands per rank (pJ)
system.mem_ctrls_0.readEnergy             59514663180                       # Energy for read commands per rank (pJ)
system.mem_ctrls_0.writeEnergy            21799873620                       # Energy for write commands per rank (pJ)
system.mem_ctrls_0.refreshEnergy         114717638880.000031                       # Energy for refresh commands per rank (pJ)
system.mem_ctrls_0.actBackEnergy         147984258420                       # Energy for active background per rank (pJ)
system.mem_ctrls_0.preBackEnergy           8814721920                       # Energy for precharge background per rank (pJ)
system.mem_ctrls_0.actPowerDownEnergy    298541793810                       # Energy for active power-down per rank (pJ)
system.mem_ctrls_0.prePowerDownEnergy     95523097440                       # Energy for precharge power-down per rank (pJ)
system.mem_ctrls_0.selfRefreshEnergy     294286995885                       # Energy for self refresh per rank (pJ)
system.mem_ctrls_0.totalEnergy           1052236970505                       # Total energy per rank (pJ)
system.mem_ctrls_0.averagePower            436.087823                       # Core power per rank (mW)
system.mem_ctrls_0.totalIdleTime         2065356773500                       # Total Idle time Per DRAM Rank
system.mem_ctrls_0.memoryStateTime::IDLE  10016275250                       # Time in different power states
system.mem_ctrls_0.memoryStateTime::REF   48699936000                       # Time in different power states
system.mem_ctrls_0.memoryStateTime::SREF 1161912951000                       # Time in different power states
system.mem_ctrls_0.memoryStateTime::PRE_PDN 248757892000                       # Time in different power states
system.mem_ctrls_0.memoryStateTime::ACT  288812440000                       # Time in different power states
system.mem_ctrls_0.memoryStateTime::ACT_PDN 654702021250                       # Time in different power states
system.mem_ctrls_1.actEnergy               7192000620                       # Energy for activate commands per rank (pJ)
system.mem_ctrls_1.preEnergy               3822638985                       # Energy for precharge commands per rank (pJ)
system.mem_ctrls_1.readEnergy             59525051880                       # Energy for read commands per rank (pJ)
system.mem_ctrls_1.writeEnergy            21801340440                       # Energy for write commands per rank (pJ)
system.mem_ctrls_1.refreshEnergy         114264649200.000031                       # Energy for refresh commands per rank (pJ)
system.mem_ctrls_1.actBackEnergy         148087931160                       # Energy for active background per rank (pJ)
system.mem_ctrls_1.preBackEnergy           8788892640                       # Energy for precharge background per rank (pJ)
system.mem_ctrls_1.actPowerDownEnergy    297652793310                       # Energy for active power-down per rank (pJ)
system.mem_ctrls_1.prePowerDownEnergy     94625403360                       # Energy for precharge power-down per rank (pJ)
system.mem_ctrls_1.selfRefreshEnergy     295154524035                       # Energy for self refresh per rank (pJ)
system.mem_ctrls_1.totalEnergy           1050937939770                       # Total energy per rank (pJ)
system.mem_ctrls_1.averagePower            435.549452                       # Core power per rank (mW)
system.mem_ctrls_1.totalIdleTime         2065204021000                       # Total Idle time Per DRAM Rank
system.mem_ctrls_1.memoryStateTime::IDLE   9958244500                       # Time in different power states
system.mem_ctrls_1.memoryStateTime::REF   48506780000                       # Time in different power states
system.mem_ctrls_1.memoryStateTime::SREF 1166041861750                       # Time in different power states
system.mem_ctrls_1.memoryStateTime::PRE_PDN 246420201750                       # Time in different power states
system.mem_ctrls_1.memoryStateTime::ACT  289221616000                       # Time in different power states
system.mem_ctrls_1.memoryStateTime::ACT_PDN 652752811500                       # Time in different power states
system.pwrStateResidencyTicks::UNDEFINED 2412901515500                       # Cumulative time (in ticks) in various power states
system.cpu_voltage_domain.voltage                   1                       # Voltage in Volts
system.cpu_clk_domain.clock                       500                       # Clock period in ticks
system.cpu.dtb.walker.pwrStateResidencyTicks::UNDEFINED 2412901515500                       # Cumulative time (in ticks) in various power states
system.cpu.apic_clk_domain.clock                 8000                       # Clock period in ticks
system.cpu.interrupts.pwrStateResidencyTicks::UNDEFINED 2412901515500                       # Cumulative time (in ticks) in various power states
system.cpu.itb.walker.pwrStateResidencyTicks::UNDEFINED 2412901515500                       # Cumulative time (in ticks) in various power states
system.cpu.workload.num_syscalls                  196                       # Number of system calls
system.cpu.pwrStateResidencyTicks::ON    2412901515500                       # Cumulative time (in ticks) in various power states
system.cpu.numCycles                       4825803031                       # number of cpu cycles simulated
system.cpu.numWorkItemsStarted                      0                       # number of work items this cpu started
system.cpu.numWorkItemsCompleted                    0                       # number of work items this cpu completed
system.cpu.committedInsts                   500000000                       # Number of instructions committed
system.cpu.committedOps                     823366692                       # Number of ops (including micro ops) committed
system.cpu.num_int_alu_accesses             821415783                       # Number of integer alu accesses
system.cpu.num_fp_alu_accesses               66619246                       # Number of float alu accesses
system.cpu.num_func_calls                     5652773                       # number of times a function call or return occured
system.cpu.num_conditional_control_insts     57208853                       # number of instructions that are conditional controls
system.cpu.num_int_insts                    821415783                       # number of integer instructions
system.cpu.num_fp_insts                      66619246                       # number of float instructions
system.cpu.num_int_register_reads          1637209917                       # number of times the integer registers were read
system.cpu.num_int_register_writes          639871082                       # number of times the integer registers were written
system.cpu.num_fp_register_reads             66766836                       # number of times the floating registers were read
system.cpu.num_fp_register_writes              208042                       # number of times the floating registers were written
system.cpu.num_cc_register_reads            319714243                       # number of times the CC registers were read
system.cpu.num_cc_register_writes           287984022                       # number of times the CC registers were written
system.cpu.num_mem_refs                     271673939                       # number of memory refs
system.cpu.num_load_insts                   157213791                       # Number of load instructions
system.cpu.num_store_insts                  114460148                       # Number of store instructions
system.cpu.num_idle_cycles                          0                       # Number of idle cycles
system.cpu.num_busy_cycles                 4825803031                       # Number of busy cycles
system.cpu.not_idle_fraction                        1                       # Percentage of non-idle cycles
system.cpu.idle_fraction                            0                       # Percentage of idle cycles
system.cpu.Branches                          69678400                       # Number of branches fetched
system.cpu.op_class::No_OpClass                202234      0.02%      0.02% # Class of executed instruction
system.cpu.op_class::IntAlu                 550028817     66.80%     66.83% # Class of executed instruction
system.cpu.op_class::IntMult                   125092      0.02%     66.84% # Class of executed instruction
system.cpu.op_class::IntDiv                   1153479      0.14%     66.98% # Class of executed instruction
system.cpu.op_class::FloatAdd                  183131      0.02%     67.00% # Class of executed instruction
system.cpu.op_class::FloatCmp                       0      0.00%     67.00% # Class of executed instruction
system.cpu.op_class::FloatCvt                       0      0.00%     67.00% # Class of executed instruction
system.cpu.op_class::FloatMult                      0      0.00%     67.00% # Class of executed instruction
system.cpu.op_class::FloatDiv                       0      0.00%     67.00% # Class of executed instruction
system.cpu.op_class::FloatSqrt                      0      0.00%     67.00% # Class of executed instruction
system.cpu.op_class::SimdAdd                        0      0.00%     67.00% # Class of executed instruction
system.cpu.op_class::SimdAddAcc                     0      0.00%     67.00% # Class of executed instruction
system.cpu.op_class::SimdAlu                        0      0.00%     67.00% # Class of executed instruction
system.cpu.op_class::SimdCmp                        0      0.00%     67.00% # Class of executed instruction
system.cpu.op_class::SimdCvt                        0      0.00%     67.00% # Class of executed instruction
system.cpu.op_class::SimdMisc                       0      0.00%     67.00% # Class of executed instruction
system.cpu.op_class::SimdMult                       0      0.00%     67.00% # Class of executed instruction
system.cpu.op_class::SimdMultAcc                    0      0.00%     67.00% # Class of executed instruction
system.cpu.op_class::SimdShift                      0      0.00%     67.00% # Class of executed instruction
system.cpu.op_class::SimdShiftAcc                   0      0.00%     67.00% # Class of executed instruction
system.cpu.op_class::SimdSqrt                       0      0.00%     67.00% # Class of executed instruction
system.cpu.op_class::SimdFloatAdd                   0      0.00%     67.00% # Class of executed instruction
system.cpu.op_class::SimdFloatAlu                   0      0.00%     67.00% # Class of executed instruction
system.cpu.op_class::SimdFloatCmp                   0      0.00%     67.00% # Class of executed instruction
system.cpu.op_class::SimdFloatCvt                   0      0.00%     67.00% # Class of executed instruction
system.cpu.op_class::SimdFloatDiv                   0      0.00%     67.00% # Class of executed instruction
system.cpu.op_class::SimdFloatMisc                  0      0.00%     67.00% # Class of executed instruction
system.cpu.op_class::SimdFloatMult                  0      0.00%     67.00% # Class of executed instruction
system.cpu.op_class::SimdFloatMultAcc               0      0.00%     67.00% # Class of executed instruction
system.cpu.op_class::SimdFloatSqrt                  0      0.00%     67.00% # Class of executed instruction
system.cpu.op_class::MemRead                157213791     19.09%     86.10% # Class of executed instruction
system.cpu.op_class::MemWrite               114460148     13.90%    100.00% # Class of executed instruction
system.cpu.op_class::IprAccess                      0      0.00%    100.00% # Class of executed instruction
system.cpu.op_class::InstPrefetch                   0      0.00%    100.00% # Class of executed instruction
system.cpu.op_class::total                  823366692                       # Class of executed instruction
system.cpu.dcache.tags.pwrStateResidencyTicks::UNDEFINED 2412901515500                       # Cumulative time (in ticks) in various power states
system.cpu.dcache.tags.replacements          16704261                       # number of replacements
system.cpu.dcache.tags.tagsinuse          4091.717631                       # Cycle average of tags in use
system.cpu.dcache.tags.total_refs           254966199                       # Total number of references to valid blocks.
system.cpu.dcache.tags.sampled_refs          16708357                       # Sample count of references to valid blocks.
system.cpu.dcache.tags.avg_refs             15.259801                       # Average number of references to valid blocks.
system.cpu.dcache.tags.warmup_cycle        8175269500                       # Cycle when the warmup percentage was hit.
system.cpu.dcache.tags.occ_blocks::cpu.data  4091.717631                       # Average occupied blocks per requestor
system.cpu.dcache.tags.occ_percent::cpu.data     0.998954                       # Average percentage of cache occupancy
system.cpu.dcache.tags.occ_percent::total     0.998954                       # Average percentage of cache occupancy
system.cpu.dcache.tags.occ_task_id_blocks::1024         4096                       # Occupied blocks per task id
system.cpu.dcache.tags.age_task_id_blocks_1024::1           21                       # Occupied blocks per task id
system.cpu.dcache.tags.age_task_id_blocks_1024::2          105                       # Occupied blocks per task id
system.cpu.dcache.tags.age_task_id_blocks_1024::3          929                       # Occupied blocks per task id
system.cpu.dcache.tags.age_task_id_blocks_1024::4         3041                       # Occupied blocks per task id
system.cpu.dcache.tags.occ_task_id_percent::1024            1                       # Percentage of cache occupancy per task id
system.cpu.dcache.tags.tag_accesses         560057469                       # Number of tag accesses
system.cpu.dcache.tags.data_accesses        560057469                       # Number of data accesses
system.cpu.dcache.pwrStateResidencyTicks::UNDEFINED 2412901515500                       # Cumulative time (in ticks) in various power states
system.cpu.dcache.ReadReq_hits::cpu.data    157108866                       # number of ReadReq hits
system.cpu.dcache.ReadReq_hits::total       157108866                       # number of ReadReq hits
system.cpu.dcache.WriteReq_hits::cpu.data     97857333                       # number of WriteReq hits
system.cpu.dcache.WriteReq_hits::total       97857333                       # number of WriteReq hits
system.cpu.dcache.demand_hits::cpu.data     254966199                       # number of demand (read+write) hits
system.cpu.dcache.demand_hits::total        254966199                       # number of demand (read+write) hits
system.cpu.dcache.overall_hits::cpu.data    254966199                       # number of overall hits
system.cpu.dcache.overall_hits::total       254966199                       # number of overall hits
system.cpu.dcache.ReadReq_misses::cpu.data       105529                       # number of ReadReq misses
system.cpu.dcache.ReadReq_misses::total        105529                       # number of ReadReq misses
system.cpu.dcache.WriteReq_misses::cpu.data     16602828                       # number of WriteReq misses
system.cpu.dcache.WriteReq_misses::total     16602828                       # number of WriteReq misses
system.cpu.dcache.demand_misses::cpu.data     16708357                       # number of demand (read+write) misses
system.cpu.dcache.demand_misses::total       16708357                       # number of demand (read+write) misses
system.cpu.dcache.overall_misses::cpu.data     16708357                       # number of overall misses
system.cpu.dcache.overall_misses::total      16708357                       # number of overall misses
system.cpu.dcache.ReadReq_miss_latency::cpu.data  26015313000                       # number of ReadReq miss cycles
system.cpu.dcache.ReadReq_miss_latency::total  26015313000                       # number of ReadReq miss cycles
system.cpu.dcache.WriteReq_miss_latency::cpu.data 1422363259500                       # number of WriteReq miss cycles
system.cpu.dcache.WriteReq_miss_latency::total 1422363259500                       # number of WriteReq miss cycles
system.cpu.dcache.demand_miss_latency::cpu.data 1448378572500                       # number of demand (read+write) miss cycles
system.cpu.dcache.demand_miss_latency::total 1448378572500                       # number of demand (read+write) miss cycles
system.cpu.dcache.overall_miss_latency::cpu.data 1448378572500                       # number of overall miss cycles
system.cpu.dcache.overall_miss_latency::total 1448378572500                       # number of overall miss cycles
system.cpu.dcache.ReadReq_accesses::cpu.data    157214395                       # number of ReadReq accesses(hits+misses)
system.cpu.dcache.ReadReq_accesses::total    157214395                       # number of ReadReq accesses(hits+misses)
system.cpu.dcache.WriteReq_accesses::cpu.data    114460161                       # number of WriteReq accesses(hits+misses)
system.cpu.dcache.WriteReq_accesses::total    114460161                       # number of WriteReq accesses(hits+misses)
system.cpu.dcache.demand_accesses::cpu.data    271674556                       # number of demand (read+write) accesses
system.cpu.dcache.demand_accesses::total    271674556                       # number of demand (read+write) accesses
system.cpu.dcache.overall_accesses::cpu.data    271674556                       # number of overall (read+write) accesses
system.cpu.dcache.overall_accesses::total    271674556                       # number of overall (read+write) accesses
system.cpu.dcache.ReadReq_miss_rate::cpu.data     0.000671                       # miss rate for ReadReq accesses
system.cpu.dcache.ReadReq_miss_rate::total     0.000671                       # miss rate for ReadReq accesses
system.cpu.dcache.WriteReq_miss_rate::cpu.data     0.145053                       # miss rate for WriteReq accesses
system.cpu.dcache.WriteReq_miss_rate::total     0.145053                       # miss rate for WriteReq accesses
system.cpu.dcache.demand_miss_rate::cpu.data     0.061501                       # miss rate for demand accesses
system.cpu.dcache.demand_miss_rate::total     0.061501                       # miss rate for demand accesses
system.cpu.dcache.overall_miss_rate::cpu.data     0.061501                       # miss rate for overall accesses
system.cpu.dcache.overall_miss_rate::total     0.061501                       # miss rate for overall accesses
system.cpu.dcache.ReadReq_avg_miss_latency::cpu.data 246522.879967                       # average ReadReq miss latency
system.cpu.dcache.ReadReq_avg_miss_latency::total 246522.879967                       # average ReadReq miss latency
system.cpu.dcache.WriteReq_avg_miss_latency::cpu.data 85669.938850                       # average WriteReq miss latency
system.cpu.dcache.WriteReq_avg_miss_latency::total 85669.938850                       # average WriteReq miss latency
system.cpu.dcache.demand_avg_miss_latency::cpu.data 86685.876565                       # average overall miss latency
system.cpu.dcache.demand_avg_miss_latency::total 86685.876565                       # average overall miss latency
system.cpu.dcache.overall_avg_miss_latency::cpu.data 86685.876565                       # average overall miss latency
system.cpu.dcache.overall_avg_miss_latency::total 86685.876565                       # average overall miss latency
system.cpu.dcache.blocked_cycles::no_mshrs            0                       # number of cycles access was blocked
system.cpu.dcache.blocked_cycles::no_targets            0                       # number of cycles access was blocked
system.cpu.dcache.blocked::no_mshrs                 0                       # number of cycles access was blocked
system.cpu.dcache.blocked::no_targets               0                       # number of cycles access was blocked
system.cpu.dcache.avg_blocked_cycles::no_mshrs          nan                       # average number of cycles each access was blocked
system.cpu.dcache.avg_blocked_cycles::no_targets          nan                       # average number of cycles each access was blocked
system.cpu.dcache.writebacks::writebacks     16677687                       # number of writebacks
system.cpu.dcache.writebacks::total          16677687                       # number of writebacks
system.cpu.dcache.ReadReq_mshr_misses::cpu.data       105529                       # number of ReadReq MSHR misses
system.cpu.dcache.ReadReq_mshr_misses::total       105529                       # number of ReadReq MSHR misses
system.cpu.dcache.WriteReq_mshr_misses::cpu.data     16602828                       # number of WriteReq MSHR misses
system.cpu.dcache.WriteReq_mshr_misses::total     16602828                       # number of WriteReq MSHR misses
system.cpu.dcache.demand_mshr_misses::cpu.data     16708357                       # number of demand (read+write) MSHR misses
system.cpu.dcache.demand_mshr_misses::total     16708357                       # number of demand (read+write) MSHR misses
system.cpu.dcache.overall_mshr_misses::cpu.data     16708357                       # number of overall MSHR misses
system.cpu.dcache.overall_mshr_misses::total     16708357                       # number of overall MSHR misses
system.cpu.dcache.ReadReq_mshr_miss_latency::cpu.data  25909784000                       # number of ReadReq MSHR miss cycles
system.cpu.dcache.ReadReq_mshr_miss_latency::total  25909784000                       # number of ReadReq MSHR miss cycles
system.cpu.dcache.WriteReq_mshr_miss_latency::cpu.data 1405760431500                       # number of WriteReq MSHR miss cycles
system.cpu.dcache.WriteReq_mshr_miss_latency::total 1405760431500                       # number of WriteReq MSHR miss cycles
system.cpu.dcache.demand_mshr_miss_latency::cpu.data 1431670215500                       # number of demand (read+write) MSHR miss cycles
system.cpu.dcache.demand_mshr_miss_latency::total 1431670215500                       # number of demand (read+write) MSHR miss cycles
system.cpu.dcache.overall_mshr_miss_latency::cpu.data 1431670215500                       # number of overall MSHR miss cycles
system.cpu.dcache.overall_mshr_miss_latency::total 1431670215500                       # number of overall MSHR miss cycles
system.cpu.dcache.ReadReq_mshr_miss_rate::cpu.data     0.000671                       # mshr miss rate for ReadReq accesses
system.cpu.dcache.ReadReq_mshr_miss_rate::total     0.000671                       # mshr miss rate for ReadReq accesses
system.cpu.dcache.WriteReq_mshr_miss_rate::cpu.data     0.145053                       # mshr miss rate for WriteReq accesses
system.cpu.dcache.WriteReq_mshr_miss_rate::total     0.145053                       # mshr miss rate for WriteReq accesses
system.cpu.dcache.demand_mshr_miss_rate::cpu.data     0.061501                       # mshr miss rate for demand accesses
system.cpu.dcache.demand_mshr_miss_rate::total     0.061501                       # mshr miss rate for demand accesses
system.cpu.dcache.overall_mshr_miss_rate::cpu.data     0.061501                       # mshr miss rate for overall accesses
system.cpu.dcache.overall_mshr_miss_rate::total     0.061501                       # mshr miss rate for overall accesses
system.cpu.dcache.ReadReq_avg_mshr_miss_latency::cpu.data 245522.879967                       # average ReadReq mshr miss latency
system.cpu.dcache.ReadReq_avg_mshr_miss_latency::total 245522.879967                       # average ReadReq mshr miss latency
system.cpu.dcache.WriteReq_avg_mshr_miss_latency::cpu.data 84669.938850                       # average WriteReq mshr miss latency
system.cpu.dcache.WriteReq_avg_mshr_miss_latency::total 84669.938850                       # average WriteReq mshr miss latency
system.cpu.dcache.demand_avg_mshr_miss_latency::cpu.data 85685.876565                       # average overall mshr miss latency
system.cpu.dcache.demand_avg_mshr_miss_latency::total 85685.876565                       # average overall mshr miss latency
system.cpu.dcache.overall_avg_mshr_miss_latency::cpu.data 85685.876565                       # average overall mshr miss latency
system.cpu.dcache.overall_avg_mshr_miss_latency::total 85685.876565                       # average overall mshr miss latency
system.cpu.dtb_walker_cache.tags.pwrStateResidencyTicks::UNDEFINED 2412901515500                       # Cumulative time (in ticks) in various power states
system.cpu.dtb_walker_cache.tags.replacements            0                       # number of replacements
system.cpu.dtb_walker_cache.tags.tagsinuse            0                       # Cycle average of tags in use
system.cpu.dtb_walker_cache.tags.total_refs            0                       # Total number of references to valid blocks.
system.cpu.dtb_walker_cache.tags.sampled_refs            0                       # Sample count of references to valid blocks.
system.cpu.dtb_walker_cache.tags.avg_refs          nan                       # Average number of references to valid blocks.
system.cpu.dtb_walker_cache.tags.warmup_cycle            0                       # Cycle when the warmup percentage was hit.
system.cpu.dtb_walker_cache.tags.tag_accesses            0                       # Number of tag accesses
system.cpu.dtb_walker_cache.tags.data_accesses            0                       # Number of data accesses
system.cpu.dtb_walker_cache.pwrStateResidencyTicks::UNDEFINED 2412901515500                       # Cumulative time (in ticks) in various power states
system.cpu.dtb_walker_cache.blocked_cycles::no_mshrs            0                       # number of cycles access was blocked
system.cpu.dtb_walker_cache.blocked_cycles::no_targets            0                       # number of cycles access was blocked
system.cpu.dtb_walker_cache.blocked::no_mshrs            0                       # number of cycles access was blocked
system.cpu.dtb_walker_cache.blocked::no_targets            0                       # number of cycles access was blocked
system.cpu.dtb_walker_cache.avg_blocked_cycles::no_mshrs          nan                       # average number of cycles each access was blocked
system.cpu.dtb_walker_cache.avg_blocked_cycles::no_targets          nan                       # average number of cycles each access was blocked
system.cpu.icache.tags.pwrStateResidencyTicks::UNDEFINED 2412901515500                       # Cumulative time (in ticks) in various power states
system.cpu.icache.tags.replacements           2809456                       # number of replacements
system.cpu.icache.tags.tagsinuse           834.154205                       # Cycle average of tags in use
system.cpu.icache.tags.total_refs           672543178                       # Total number of references to valid blocks.
system.cpu.icache.tags.sampled_refs           2810479                       # Sample count of references to valid blocks.
system.cpu.icache.tags.avg_refs            239.298418                       # Average number of references to valid blocks.
system.cpu.icache.tags.warmup_cycle                 0                       # Cycle when the warmup percentage was hit.
system.cpu.icache.tags.occ_blocks::cpu.inst   834.154205                       # Average occupied blocks per requestor
system.cpu.icache.tags.occ_percent::cpu.inst     0.814604                       # Average percentage of cache occupancy
system.cpu.icache.tags.occ_percent::total     0.814604                       # Average percentage of cache occupancy
system.cpu.icache.tags.occ_task_id_blocks::1024         1023                       # Occupied blocks per task id
system.cpu.icache.tags.age_task_id_blocks_1024::0           17                       # Occupied blocks per task id
system.cpu.icache.tags.age_task_id_blocks_1024::1          167                       # Occupied blocks per task id
system.cpu.icache.tags.age_task_id_blocks_1024::2          125                       # Occupied blocks per task id
system.cpu.icache.tags.age_task_id_blocks_1024::3           75                       # Occupied blocks per task id
system.cpu.icache.tags.age_task_id_blocks_1024::4          639                       # Occupied blocks per task id
system.cpu.icache.tags.occ_task_id_percent::1024     0.999023                       # Percentage of cache occupancy per task id
system.cpu.icache.tags.tag_accesses        1353517793                       # Number of tag accesses
system.cpu.icache.tags.data_accesses       1353517793                       # Number of data accesses
system.cpu.icache.pwrStateResidencyTicks::UNDEFINED 2412901515500                       # Cumulative time (in ticks) in various power states
system.cpu.icache.ReadReq_hits::cpu.inst    672543178                       # number of ReadReq hits
system.cpu.icache.ReadReq_hits::total       672543178                       # number of ReadReq hits
system.cpu.icache.demand_hits::cpu.inst     672543178                       # number of demand (read+write) hits
system.cpu.icache.demand_hits::total        672543178                       # number of demand (read+write) hits
system.cpu.icache.overall_hits::cpu.inst    672543178                       # number of overall hits
system.cpu.icache.overall_hits::total       672543178                       # number of overall hits
system.cpu.icache.ReadReq_misses::cpu.inst      2810479                       # number of ReadReq misses
system.cpu.icache.ReadReq_misses::total       2810479                       # number of ReadReq misses
system.cpu.icache.demand_misses::cpu.inst      2810479                       # number of demand (read+write) misses
system.cpu.icache.demand_misses::total        2810479                       # number of demand (read+write) misses
system.cpu.icache.overall_misses::cpu.inst      2810479                       # number of overall misses
system.cpu.icache.overall_misses::total       2810479                       # number of overall misses
system.cpu.icache.ReadReq_miss_latency::cpu.inst  37013993500                       # number of ReadReq miss cycles
system.cpu.icache.ReadReq_miss_latency::total  37013993500                       # number of ReadReq miss cycles
system.cpu.icache.demand_miss_latency::cpu.inst  37013993500                       # number of demand (read+write) miss cycles
system.cpu.icache.demand_miss_latency::total  37013993500                       # number of demand (read+write) miss cycles
system.cpu.icache.overall_miss_latency::cpu.inst  37013993500                       # number of overall miss cycles
system.cpu.icache.overall_miss_latency::total  37013993500                       # number of overall miss cycles
system.cpu.icache.ReadReq_accesses::cpu.inst    675353657                       # number of ReadReq accesses(hits+misses)
system.cpu.icache.ReadReq_accesses::total    675353657                       # number of ReadReq accesses(hits+misses)
system.cpu.icache.demand_accesses::cpu.inst    675353657                       # number of demand (read+write) accesses
system.cpu.icache.demand_accesses::total    675353657                       # number of demand (read+write) accesses
system.cpu.icache.overall_accesses::cpu.inst    675353657                       # number of overall (read+write) accesses
system.cpu.icache.overall_accesses::total    675353657                       # number of overall (read+write) accesses
system.cpu.icache.ReadReq_miss_rate::cpu.inst     0.004161                       # miss rate for ReadReq accesses
system.cpu.icache.ReadReq_miss_rate::total     0.004161                       # miss rate for ReadReq accesses
system.cpu.icache.demand_miss_rate::cpu.inst     0.004161                       # miss rate for demand accesses
system.cpu.icache.demand_miss_rate::total     0.004161                       # miss rate for demand accesses
system.cpu.icache.overall_miss_rate::cpu.inst     0.004161                       # miss rate for overall accesses
system.cpu.icache.overall_miss_rate::total     0.004161                       # miss rate for overall accesses
system.cpu.icache.ReadReq_avg_miss_latency::cpu.inst 13169.994688                       # average ReadReq miss latency
system.cpu.icache.ReadReq_avg_miss_latency::total 13169.994688                       # average ReadReq miss latency
system.cpu.icache.demand_avg_miss_latency::cpu.inst 13169.994688                       # average overall miss latency
system.cpu.icache.demand_avg_miss_latency::total 13169.994688                       # average overall miss latency
system.cpu.icache.overall_avg_miss_latency::cpu.inst 13169.994688                       # average overall miss latency
system.cpu.icache.overall_avg_miss_latency::total 13169.994688                       # average overall miss latency
system.cpu.icache.blocked_cycles::no_mshrs            0                       # number of cycles access was blocked
system.cpu.icache.blocked_cycles::no_targets            0                       # number of cycles access was blocked
system.cpu.icache.blocked::no_mshrs                 0                       # number of cycles access was blocked
system.cpu.icache.blocked::no_targets               0                       # number of cycles access was blocked
system.cpu.icache.avg_blocked_cycles::no_mshrs          nan                       # average number of cycles each access was blocked
system.cpu.icache.avg_blocked_cycles::no_targets          nan                       # average number of cycles each access was blocked
system.cpu.icache.writebacks::writebacks      2809456                       # number of writebacks
system.cpu.icache.writebacks::total           2809456                       # number of writebacks
system.cpu.icache.ReadReq_mshr_misses::cpu.inst      2810479                       # number of ReadReq MSHR misses
system.cpu.icache.ReadReq_mshr_misses::total      2810479                       # number of ReadReq MSHR misses
system.cpu.icache.demand_mshr_misses::cpu.inst      2810479                       # number of demand (read+write) MSHR misses
system.cpu.icache.demand_mshr_misses::total      2810479                       # number of demand (read+write) MSHR misses
system.cpu.icache.overall_mshr_misses::cpu.inst      2810479                       # number of overall MSHR misses
system.cpu.icache.overall_mshr_misses::total      2810479                       # number of overall MSHR misses
system.cpu.icache.ReadReq_mshr_miss_latency::cpu.inst  34203514500                       # number of ReadReq MSHR miss cycles
system.cpu.icache.ReadReq_mshr_miss_latency::total  34203514500                       # number of ReadReq MSHR miss cycles
system.cpu.icache.demand_mshr_miss_latency::cpu.inst  34203514500                       # number of demand (read+write) MSHR miss cycles
system.cpu.icache.demand_mshr_miss_latency::total  34203514500                       # number of demand (read+write) MSHR miss cycles
system.cpu.icache.overall_mshr_miss_latency::cpu.inst  34203514500                       # number of overall MSHR miss cycles
system.cpu.icache.overall_mshr_miss_latency::total  34203514500                       # number of overall MSHR miss cycles
system.cpu.icache.ReadReq_mshr_miss_rate::cpu.inst     0.004161                       # mshr miss rate for ReadReq accesses
system.cpu.icache.ReadReq_mshr_miss_rate::total     0.004161                       # mshr miss rate for ReadReq accesses
system.cpu.icache.demand_mshr_miss_rate::cpu.inst     0.004161                       # mshr miss rate for demand accesses
system.cpu.icache.demand_mshr_miss_rate::total     0.004161                       # mshr miss rate for demand accesses
system.cpu.icache.overall_mshr_miss_rate::cpu.inst     0.004161                       # mshr miss rate for overall accesses
system.cpu.icache.overall_mshr_miss_rate::total     0.004161                       # mshr miss rate for overall accesses
system.cpu.icache.ReadReq_avg_mshr_miss_latency::cpu.inst 12169.994688                       # average ReadReq mshr miss latency
system.cpu.icache.ReadReq_avg_mshr_miss_latency::total 12169.994688                       # average ReadReq mshr miss latency
system.cpu.icache.demand_avg_mshr_miss_latency::cpu.inst 12169.994688                       # average overall mshr miss latency
system.cpu.icache.demand_avg_mshr_miss_latency::total 12169.994688                       # average overall mshr miss latency
system.cpu.icache.overall_avg_mshr_miss_latency::cpu.inst 12169.994688                       # average overall mshr miss latency
system.cpu.icache.overall_avg_mshr_miss_latency::total 12169.994688                       # average overall mshr miss latency
system.cpu.itb_walker_cache.tags.pwrStateResidencyTicks::UNDEFINED 2412901515500                       # Cumulative time (in ticks) in various power states
system.cpu.itb_walker_cache.tags.replacements            0                       # number of replacements
system.cpu.itb_walker_cache.tags.tagsinuse            0                       # Cycle average of tags in use
system.cpu.itb_walker_cache.tags.total_refs            0                       # Total number of references to valid blocks.
system.cpu.itb_walker_cache.tags.sampled_refs            0                       # Sample count of references to valid blocks.
system.cpu.itb_walker_cache.tags.avg_refs          nan                       # Average number of references to valid blocks.
system.cpu.itb_walker_cache.tags.warmup_cycle            0                       # Cycle when the warmup percentage was hit.
system.cpu.itb_walker_cache.tags.tag_accesses            0                       # Number of tag accesses
system.cpu.itb_walker_cache.tags.data_accesses            0                       # Number of data accesses
system.cpu.itb_walker_cache.pwrStateResidencyTicks::UNDEFINED 2412901515500                       # Cumulative time (in ticks) in various power states
system.cpu.itb_walker_cache.blocked_cycles::no_mshrs            0                       # number of cycles access was blocked
system.cpu.itb_walker_cache.blocked_cycles::no_targets            0                       # number of cycles access was blocked
system.cpu.itb_walker_cache.blocked::no_mshrs            0                       # number of cycles access was blocked
system.cpu.itb_walker_cache.blocked::no_targets            0                       # number of cycles access was blocked
system.cpu.itb_walker_cache.avg_blocked_cycles::no_mshrs          nan                       # average number of cycles each access was blocked
system.cpu.itb_walker_cache.avg_blocked_cycles::no_targets          nan                       # average number of cycles each access was blocked
system.l2.tags.pwrStateResidencyTicks::UNDEFINED 2412901515500                       # Cumulative time (in ticks) in various power states
system.l2.tags.replacements                  16647888                       # number of replacements
system.l2.tags.tagsinuse                 32656.848562                       # Cycle average of tags in use
system.l2.tags.total_refs                    22350219                       # Total number of references to valid blocks.
system.l2.tags.sampled_refs                  16680656                       # Sample count of references to valid blocks.
system.l2.tags.avg_refs                      1.339888                       # Average number of references to valid blocks.
system.l2.tags.warmup_cycle               11058015000                       # Cycle when the warmup percentage was hit.
system.l2.tags.occ_blocks::writebacks      546.885524                       # Average occupied blocks per requestor
system.l2.tags.occ_blocks::cpu.inst        424.775202                       # Average occupied blocks per requestor
system.l2.tags.occ_blocks::cpu.data      31685.187836                       # Average occupied blocks per requestor
system.l2.tags.occ_percent::writebacks       0.016690                       # Average percentage of cache occupancy
system.l2.tags.occ_percent::cpu.inst         0.012963                       # Average percentage of cache occupancy
system.l2.tags.occ_percent::cpu.data         0.966955                       # Average percentage of cache occupancy
system.l2.tags.occ_percent::total            0.996608                       # Average percentage of cache occupancy
system.l2.tags.occ_task_id_blocks::1024         32768                       # Occupied blocks per task id
system.l2.tags.age_task_id_blocks_1024::1            7                       # Occupied blocks per task id
system.l2.tags.age_task_id_blocks_1024::2           95                       # Occupied blocks per task id
system.l2.tags.age_task_id_blocks_1024::3          949                       # Occupied blocks per task id
system.l2.tags.age_task_id_blocks_1024::4        31717                       # Occupied blocks per task id
system.l2.tags.occ_task_id_percent::1024            1                       # Percentage of cache occupancy per task id
system.l2.tags.tag_accesses                  94745762                       # Number of tag accesses
system.l2.tags.data_accesses                 94745762                       # Number of data accesses
system.l2.pwrStateResidencyTicks::UNDEFINED 2412901515500                       # Cumulative time (in ticks) in various power states
system.l2.WritebackDirty_hits::writebacks     16677687                       # number of WritebackDirty hits
system.l2.WritebackDirty_hits::total         16677687                       # number of WritebackDirty hits
system.l2.WritebackClean_hits::writebacks      2809456                       # number of WritebackClean hits
system.l2.WritebackClean_hits::total          2809456                       # number of WritebackClean hits
system.l2.ReadExReq_hits::cpu.data              14828                       # number of ReadExReq hits
system.l2.ReadExReq_hits::total                 14828                       # number of ReadExReq hits
system.l2.ReadCleanReq_hits::cpu.inst         2806505                       # number of ReadCleanReq hits
system.l2.ReadCleanReq_hits::total            2806505                       # number of ReadCleanReq hits
system.l2.ReadSharedReq_hits::cpu.data          25258                       # number of ReadSharedReq hits
system.l2.ReadSharedReq_hits::total             25258                       # number of ReadSharedReq hits
system.l2.demand_hits::cpu.inst               2806505                       # number of demand (read+write) hits
system.l2.demand_hits::cpu.data                 40086                       # number of demand (read+write) hits
system.l2.demand_hits::total                  2846591                       # number of demand (read+write) hits
system.l2.overall_hits::cpu.inst              2806505                       # number of overall hits
system.l2.overall_hits::cpu.data                40086                       # number of overall hits
system.l2.overall_hits::total                 2846591                       # number of overall hits
system.l2.ReadExReq_misses::cpu.data         16588000                       # number of ReadExReq misses
system.l2.ReadExReq_misses::total            16588000                       # number of ReadExReq misses
system.l2.ReadCleanReq_misses::cpu.inst          3974                       # number of ReadCleanReq misses
system.l2.ReadCleanReq_misses::total             3974                       # number of ReadCleanReq misses
system.l2.ReadSharedReq_misses::cpu.data        80271                       # number of ReadSharedReq misses
system.l2.ReadSharedReq_misses::total           80271                       # number of ReadSharedReq misses
system.l2.demand_misses::cpu.inst                3974                       # number of demand (read+write) misses
system.l2.demand_misses::cpu.data            16668271                       # number of demand (read+write) misses
system.l2.demand_misses::total               16672245                       # number of demand (read+write) misses
system.l2.overall_misses::cpu.inst               3974                       # number of overall misses
system.l2.overall_misses::cpu.data           16668271                       # number of overall misses
system.l2.overall_misses::total              16672245                       # number of overall misses
system.l2.ReadExReq_miss_latency::cpu.data 1380700495500                       # number of ReadExReq miss cycles
system.l2.ReadExReq_miss_latency::total  1380700495500                       # number of ReadExReq miss cycles
system.l2.ReadCleanReq_miss_latency::cpu.inst    519493500                       # number of ReadCleanReq miss cycles
system.l2.ReadCleanReq_miss_latency::total    519493500                       # number of ReadCleanReq miss cycles
system.l2.ReadSharedReq_miss_latency::cpu.data  25486281000                       # number of ReadSharedReq miss cycles
system.l2.ReadSharedReq_miss_latency::total  25486281000                       # number of ReadSharedReq miss cycles
system.l2.demand_miss_latency::cpu.inst     519493500                       # number of demand (read+write) miss cycles
system.l2.demand_miss_latency::cpu.data  1406186776500                       # number of demand (read+write) miss cycles
system.l2.demand_miss_latency::total     1406706270000                       # number of demand (read+write) miss cycles
system.l2.overall_miss_latency::cpu.inst    519493500                       # number of overall miss cycles
system.l2.overall_miss_latency::cpu.data 1406186776500                       # number of overall miss cycles
system.l2.overall_miss_latency::total    1406706270000                       # number of overall miss cycles
system.l2.WritebackDirty_accesses::writebacks     16677687                       # number of WritebackDirty accesses(hits+misses)
system.l2.WritebackDirty_accesses::total     16677687                       # number of WritebackDirty accesses(hits+misses)
system.l2.WritebackClean_accesses::writebacks      2809456                       # number of WritebackClean accesses(hits+misses)
system.l2.WritebackClean_accesses::total      2809456                       # number of WritebackClean accesses(hits+misses)
system.l2.ReadExReq_accesses::cpu.data       16602828                       # number of ReadExReq accesses(hits+misses)
system.l2.ReadExReq_accesses::total          16602828                       # number of ReadExReq accesses(hits+misses)
system.l2.ReadCleanReq_accesses::cpu.inst      2810479                       # number of ReadCleanReq accesses(hits+misses)
system.l2.ReadCleanReq_accesses::total        2810479                       # number of ReadCleanReq accesses(hits+misses)
system.l2.ReadSharedReq_accesses::cpu.data       105529                       # number of ReadSharedReq accesses(hits+misses)
system.l2.ReadSharedReq_accesses::total        105529                       # number of ReadSharedReq accesses(hits+misses)
system.l2.demand_accesses::cpu.inst           2810479                       # number of demand (read+write) accesses
system.l2.demand_accesses::cpu.data          16708357                       # number of demand (read+write) accesses
system.l2.demand_accesses::total             19518836                       # number of demand (read+write) accesses
system.l2.overall_accesses::cpu.inst          2810479                       # number of overall (read+write) accesses
system.l2.overall_accesses::cpu.data         16708357                       # number of overall (read+write) accesses
system.l2.overall_accesses::total            19518836                       # number of overall (read+write) accesses
system.l2.ReadExReq_miss_rate::cpu.data      0.999107                       # miss rate for ReadExReq accesses
system.l2.ReadExReq_miss_rate::total         0.999107                       # miss rate for ReadExReq accesses
system.l2.ReadCleanReq_miss_rate::cpu.inst     0.001414                       # miss rate for ReadCleanReq accesses
system.l2.ReadCleanReq_miss_rate::total      0.001414                       # miss rate for ReadCleanReq accesses
system.l2.ReadSharedReq_miss_rate::cpu.data     0.760653                       # miss rate for ReadSharedReq accesses
system.l2.ReadSharedReq_miss_rate::total     0.760653                       # miss rate for ReadSharedReq accesses
system.l2.demand_miss_rate::cpu.inst         0.001414                       # miss rate for demand accesses
system.l2.demand_miss_rate::cpu.data         0.997601                       # miss rate for demand accesses
system.l2.demand_miss_rate::total            0.854162                       # miss rate for demand accesses
system.l2.overall_miss_rate::cpu.inst        0.001414                       # miss rate for overall accesses
system.l2.overall_miss_rate::cpu.data        0.997601                       # miss rate for overall accesses
system.l2.overall_miss_rate::total           0.854162                       # miss rate for overall accesses
system.l2.ReadExReq_avg_miss_latency::cpu.data 83234.898451                       # average ReadExReq miss latency
system.l2.ReadExReq_avg_miss_latency::total 83234.898451                       # average ReadExReq miss latency
system.l2.ReadCleanReq_avg_miss_latency::cpu.inst 130723.074987                       # average ReadCleanReq miss latency
system.l2.ReadCleanReq_avg_miss_latency::total 130723.074987                       # average ReadCleanReq miss latency
system.l2.ReadSharedReq_avg_miss_latency::cpu.data 317502.971185                       # average ReadSharedReq miss latency
system.l2.ReadSharedReq_avg_miss_latency::total 317502.971185                       # average ReadSharedReq miss latency
system.l2.demand_avg_miss_latency::cpu.inst 130723.074987                       # average overall miss latency
system.l2.demand_avg_miss_latency::cpu.data 84363.085799                       # average overall miss latency
system.l2.demand_avg_miss_latency::total 84374.136177                       # average overall miss latency
system.l2.overall_avg_miss_latency::cpu.inst 130723.074987                       # average overall miss latency
system.l2.overall_avg_miss_latency::cpu.data 84363.085799                       # average overall miss latency
system.l2.overall_avg_miss_latency::total 84374.136177                       # average overall miss latency
system.l2.blocked_cycles::no_mshrs                  0                       # number of cycles access was blocked
system.l2.blocked_cycles::no_targets                0                       # number of cycles access was blocked
system.l2.blocked::no_mshrs                         0                       # number of cycles access was blocked
system.l2.blocked::no_targets                       0                       # number of cycles access was blocked
system.l2.avg_blocked_cycles::no_mshrs            nan                       # average number of cycles each access was blocked
system.l2.avg_blocked_cycles::no_targets          nan                       # average number of cycles each access was blocked
system.l2.writebacks::writebacks             16625548                       # number of writebacks
system.l2.writebacks::total                  16625548                       # number of writebacks
system.l2.CleanEvict_mshr_misses::writebacks         1678                       # number of CleanEvict MSHR misses
system.l2.CleanEvict_mshr_misses::total          1678                       # number of CleanEvict MSHR misses
system.l2.ReadExReq_mshr_misses::cpu.data     16588000                       # number of ReadExReq MSHR misses
system.l2.ReadExReq_mshr_misses::total       16588000                       # number of ReadExReq MSHR misses
system.l2.ReadCleanReq_mshr_misses::cpu.inst         3974                       # number of ReadCleanReq MSHR misses
system.l2.ReadCleanReq_mshr_misses::total         3974                       # number of ReadCleanReq MSHR misses
system.l2.ReadSharedReq_mshr_misses::cpu.data        80271                       # number of ReadSharedReq MSHR misses
system.l2.ReadSharedReq_mshr_misses::total        80271                       # number of ReadSharedReq MSHR misses
system.l2.demand_mshr_misses::cpu.inst           3974                       # number of demand (read+write) MSHR misses
system.l2.demand_mshr_misses::cpu.data       16668271                       # number of demand (read+write) MSHR misses
system.l2.demand_mshr_misses::total          16672245                       # number of demand (read+write) MSHR misses
system.l2.overall_mshr_misses::cpu.inst          3974                       # number of overall MSHR misses
system.l2.overall_mshr_misses::cpu.data      16668271                       # number of overall MSHR misses
system.l2.overall_mshr_misses::total         16672245                       # number of overall MSHR misses
system.l2.ReadExReq_mshr_miss_latency::cpu.data 1214820495500                       # number of ReadExReq MSHR miss cycles
system.l2.ReadExReq_mshr_miss_latency::total 1214820495500                       # number of ReadExReq MSHR miss cycles
system.l2.ReadCleanReq_mshr_miss_latency::cpu.inst    479753500                       # number of ReadCleanReq MSHR miss cycles
system.l2.ReadCleanReq_mshr_miss_latency::total    479753500                       # number of ReadCleanReq MSHR miss cycles
system.l2.ReadSharedReq_mshr_miss_latency::cpu.data  24683571000                       # number of ReadSharedReq MSHR miss cycles
system.l2.ReadSharedReq_mshr_miss_latency::total  24683571000                       # number of ReadSharedReq MSHR miss cycles
system.l2.demand_mshr_miss_latency::cpu.inst    479753500                       # number of demand (read+write) MSHR miss cycles
system.l2.demand_mshr_miss_latency::cpu.data 1239504066500                       # number of demand (read+write) MSHR miss cycles
system.l2.demand_mshr_miss_latency::total 1239983820000                       # number of demand (read+write) MSHR miss cycles
system.l2.overall_mshr_miss_latency::cpu.inst    479753500                       # number of overall MSHR miss cycles
system.l2.overall_mshr_miss_latency::cpu.data 1239504066500                       # number of overall MSHR miss cycles
system.l2.overall_mshr_miss_latency::total 1239983820000                       # number of overall MSHR miss cycles
system.l2.CleanEvict_mshr_miss_rate::writebacks          inf                       # mshr miss rate for CleanEvict accesses
system.l2.CleanEvict_mshr_miss_rate::total          inf                       # mshr miss rate for CleanEvict accesses
system.l2.ReadExReq_mshr_miss_rate::cpu.data     0.999107                       # mshr miss rate for ReadExReq accesses
system.l2.ReadExReq_mshr_miss_rate::total     0.999107                       # mshr miss rate for ReadExReq accesses
system.l2.ReadCleanReq_mshr_miss_rate::cpu.inst     0.001414                       # mshr miss rate for ReadCleanReq accesses
system.l2.ReadCleanReq_mshr_miss_rate::total     0.001414                       # mshr miss rate for ReadCleanReq accesses
system.l2.ReadSharedReq_mshr_miss_rate::cpu.data     0.760653                       # mshr miss rate for ReadSharedReq accesses
system.l2.ReadSharedReq_mshr_miss_rate::total     0.760653                       # mshr miss rate for ReadSharedReq accesses
system.l2.demand_mshr_miss_rate::cpu.inst     0.001414                       # mshr miss rate for demand accesses
system.l2.demand_mshr_miss_rate::cpu.data     0.997601                       # mshr miss rate for demand accesses
system.l2.demand_mshr_miss_rate::total       0.854162                       # mshr miss rate for demand accesses
system.l2.overall_mshr_miss_rate::cpu.inst     0.001414                       # mshr miss rate for overall accesses
system.l2.overall_mshr_miss_rate::cpu.data     0.997601                       # mshr miss rate for overall accesses
system.l2.overall_mshr_miss_rate::total      0.854162                       # mshr miss rate for overall accesses
system.l2.ReadExReq_avg_mshr_miss_latency::cpu.data 73234.898451                       # average ReadExReq mshr miss latency
system.l2.ReadExReq_avg_mshr_miss_latency::total 73234.898451                       # average ReadExReq mshr miss latency
system.l2.ReadCleanReq_avg_mshr_miss_latency::cpu.inst 120723.074987                       # average ReadCleanReq mshr miss latency
system.l2.ReadCleanReq_avg_mshr_miss_latency::total 120723.074987                       # average ReadCleanReq mshr miss latency
system.l2.ReadSharedReq_avg_mshr_miss_latency::cpu.data 307502.971185                       # average ReadSharedReq mshr miss latency
system.l2.ReadSharedReq_avg_mshr_miss_latency::total 307502.971185                       # average ReadSharedReq mshr miss latency
system.l2.demand_avg_mshr_miss_latency::cpu.inst 120723.074987                       # average overall mshr miss latency
system.l2.demand_avg_mshr_miss_latency::cpu.data 74363.085799                       # average overall mshr miss latency
system.l2.demand_avg_mshr_miss_latency::total 74374.136177                       # average overall mshr miss latency
system.l2.overall_avg_mshr_miss_latency::cpu.inst 120723.074987                       # average overall mshr miss latency
system.l2.overall_avg_mshr_miss_latency::cpu.data 74363.085799                       # average overall mshr miss latency
system.l2.overall_avg_mshr_miss_latency::total 74374.136177                       # average overall mshr miss latency
system.membus.snoop_filter.tot_requests      33311075                       # Total number of requests made to the snoop filter.
system.membus.snoop_filter.hit_single_requests     16638830                       # Number of requests hitting in the snoop filter with a single holder of the requested data.
system.membus.snoop_filter.hit_multi_requests            0                       # Number of requests hitting in the snoop filter with multiple (>1) holders of the requested data.
system.membus.snoop_filter.tot_snoops               0                       # Total number of snoops made to the snoop filter.
system.membus.snoop_filter.hit_single_snoops            0                       # Number of snoops hitting in the snoop filter with a single holder of the requested data.
system.membus.snoop_filter.hit_multi_snoops            0                       # Number of snoops hitting in the snoop filter with multiple (>1) holders of the requested data.
system.membus.pwrStateResidencyTicks::UNDEFINED 2412901515500                       # Cumulative time (in ticks) in various power states
system.membus.trans_dist::ReadResp              84245                       # Transaction distribution
system.membus.trans_dist::WritebackDirty     16625548                       # Transaction distribution
system.membus.trans_dist::CleanEvict            13282                       # Transaction distribution
system.membus.trans_dist::ReadExReq          16588000                       # Transaction distribution
system.membus.trans_dist::ReadExResp         16588000                       # Transaction distribution
system.membus.trans_dist::ReadSharedReq         84245                       # Transaction distribution
system.membus.pkt_count_system.l2.mem_side::system.mem_ctrls.port     49983320                       # Packet count per connected master and slave (bytes)
system.membus.pkt_count_system.l2.mem_side::total     49983320                       # Packet count per connected master and slave (bytes)
system.membus.pkt_count::total               49983320                       # Packet count per connected master and slave (bytes)
system.membus.pkt_size_system.l2.mem_side::system.mem_ctrls.port   1065529376                       # Cumulative packet size per connected master and slave (bytes)
system.membus.pkt_size_system.l2.mem_side::total   1065529376                       # Cumulative packet size per connected master and slave (bytes)
system.membus.pkt_size::total              1065529376                       # Cumulative packet size per connected master and slave (bytes)
system.membus.snoops                                0                       # Total snoops (count)
system.membus.snoopTraffic                          0                       # Total snoop traffic (bytes)
system.membus.snoop_fanout::samples          16672245                       # Request fanout histogram
system.membus.snoop_fanout::mean                    0                       # Request fanout histogram
system.membus.snoop_fanout::stdev                   0                       # Request fanout histogram
system.membus.snoop_fanout::underflows              0      0.00%      0.00% # Request fanout histogram
system.membus.snoop_fanout::0                16672245    100.00%    100.00% # Request fanout histogram
system.membus.snoop_fanout::1                       0      0.00%    100.00% # Request fanout histogram
system.membus.snoop_fanout::overflows               0      0.00%    100.00% # Request fanout histogram
system.membus.snoop_fanout::min_value               0                       # Request fanout histogram
system.membus.snoop_fanout::max_value               0                       # Request fanout histogram
system.membus.snoop_fanout::total            16672245                       # Request fanout histogram
system.membus.reqLayer2.occupancy         66562190500                       # Layer occupancy (ticks)
system.membus.reqLayer2.utilization               2.8                       # Layer utilization (%)
system.membus.respLayer1.occupancy        54448223750                       # Layer occupancy (ticks)
system.membus.respLayer1.utilization              2.3                       # Layer utilization (%)
system.tol2bus.snoop_filter.tot_requests     39032553                       # Total number of requests made to the snoop filter.
system.tol2bus.snoop_filter.hit_single_requests     19513717                       # Number of requests hitting in the snoop filter with a single holder of the requested data.
system.tol2bus.snoop_filter.hit_multi_requests            0                       # Number of requests hitting in the snoop filter with multiple (>1) holders of the requested data.
system.tol2bus.snoop_filter.tot_snoops          10736                       # Total number of snoops made to the snoop filter.
system.tol2bus.snoop_filter.hit_single_snoops        10736                       # Number of snoops hitting in the snoop filter with a single holder of the requested data.
system.tol2bus.snoop_filter.hit_multi_snoops            0                       # Number of snoops hitting in the snoop filter with multiple (>1) holders of the requested data.
system.tol2bus.pwrStateResidencyTicks::UNDEFINED 2412901515500                       # Cumulative time (in ticks) in various power states
system.tol2bus.trans_dist::ReadResp           2916008                       # Transaction distribution
system.tol2bus.trans_dist::WritebackDirty     33303235                       # Transaction distribution
system.tol2bus.trans_dist::WritebackClean      2809456                       # Transaction distribution
system.tol2bus.trans_dist::CleanEvict           48914                       # Transaction distribution
system.tol2bus.trans_dist::ReadExReq         16602828                       # Transaction distribution
system.tol2bus.trans_dist::ReadExResp        16602828                       # Transaction distribution
system.tol2bus.trans_dist::ReadCleanReq       2810479                       # Transaction distribution
system.tol2bus.trans_dist::ReadSharedReq       105529                       # Transaction distribution
system.tol2bus.pkt_count_system.cpu.icache.mem_side::system.l2.cpu_side      8430414                       # Packet count per connected master and slave (bytes)
system.tol2bus.pkt_count_system.cpu.dcache.mem_side::system.l2.cpu_side     50120975                       # Packet count per connected master and slave (bytes)
system.tol2bus.pkt_count::total              58551389                       # Packet count per connected master and slave (bytes)
system.tol2bus.pkt_size_system.cpu.icache.mem_side::system.l2.cpu_side    179837920                       # Cumulative packet size per connected master and slave (bytes)
system.tol2bus.pkt_size_system.cpu.dcache.mem_side::system.l2.cpu_side   1068353408                       # Cumulative packet size per connected master and slave (bytes)
system.tol2bus.pkt_size::total             1248191328                       # Cumulative packet size per connected master and slave (bytes)
system.tol2bus.snoops                        16647888                       # Total snoops (count)
system.tol2bus.snoopTraffic                 532017536                       # Total snoop traffic (bytes)
system.tol2bus.snoop_fanout::samples         36166724                       # Request fanout histogram
system.tol2bus.snoop_fanout::mean            0.000297                       # Request fanout histogram
system.tol2bus.snoop_fanout::stdev           0.017227                       # Request fanout histogram
system.tol2bus.snoop_fanout::underflows             0      0.00%      0.00% # Request fanout histogram
system.tol2bus.snoop_fanout::0               36155988     99.97%     99.97% # Request fanout histogram
system.tol2bus.snoop_fanout::1                  10736      0.03%    100.00% # Request fanout histogram
system.tol2bus.snoop_fanout::2                      0      0.00%    100.00% # Request fanout histogram
system.tol2bus.snoop_fanout::3                      0      0.00%    100.00% # Request fanout histogram
system.tol2bus.snoop_fanout::4                      0      0.00%    100.00% # Request fanout histogram
system.tol2bus.snoop_fanout::overflows              0      0.00%    100.00% # Request fanout histogram
system.tol2bus.snoop_fanout::min_value              0                       # Request fanout histogram
system.tol2bus.snoop_fanout::max_value              1                       # Request fanout histogram
system.tol2bus.snoop_fanout::total           36166724                       # Request fanout histogram
system.tol2bus.reqLayer0.occupancy        29259848000                       # Layer occupancy (ticks)
system.tol2bus.reqLayer0.utilization              1.2                       # Layer utilization (%)
system.tol2bus.respLayer0.occupancy        2810479000                       # Layer occupancy (ticks)
system.tol2bus.respLayer0.utilization             0.1                       # Layer utilization (%)
system.tol2bus.respLayer1.occupancy       16708357000                       # Layer occupancy (ticks)
system.tol2bus.respLayer1.utilization             0.7                       # Layer utilization (%)

---------- End Simulation Statistics   ----------
