
---------- Begin Simulation Statistics ----------
sim_seconds                                  2.129954                       # Number of seconds simulated
sim_ticks                                2129953547500                       # Number of ticks simulated
final_tick                               2129953547500                       # Number of ticks from beginning of simulation (restored from checkpoints and never reset)
sim_freq                                 1000000000000                       # Frequency of simulated ticks
host_inst_rate                                 527549                       # Simulator instruction rate (inst/s)
host_op_rate                                   684720                       # Simulator op (including micro ops) rate (op/s)
host_tick_rate                             2247310560                       # Simulator tick rate (ticks/s)
host_mem_usage                                 663280                       # Number of bytes of host memory used
host_seconds                                   947.78                       # Real time elapsed on the host
sim_insts                                   500000000                       # Number of instructions simulated
sim_ops                                     648963383                       # Number of ops (including micro ops) simulated
system.voltage_domain.voltage                       1                       # Voltage in Volts
system.clk_domain.clock                          1000                       # Clock period in ticks
system.mem_ctrls.pwrStateResidencyTicks::UNDEFINED 2129953547500                       # Cumulative time (in ticks) in various power states
system.mem_ctrls.bytes_read::cpu.inst           27808                       # Number of bytes read from this memory
system.mem_ctrls.bytes_read::cpu.data       443123840                       # Number of bytes read from this memory
system.mem_ctrls.bytes_read::total          443151648                       # Number of bytes read from this memory
system.mem_ctrls.bytes_inst_read::cpu.inst        27808                       # Number of instructions bytes read from this memory
system.mem_ctrls.bytes_inst_read::total         27808                       # Number of instructions bytes read from this memory
system.mem_ctrls.bytes_written::writebacks    442071328                       # Number of bytes written to this memory
system.mem_ctrls.bytes_written::total       442071328                       # Number of bytes written to this memory
system.mem_ctrls.num_reads::cpu.inst              869                       # Number of read requests responded to by this memory
system.mem_ctrls.num_reads::cpu.data         13847620                       # Number of read requests responded to by this memory
system.mem_ctrls.num_reads::total            13848489                       # Number of read requests responded to by this memory
system.mem_ctrls.num_writes::writebacks      13814729                       # Number of write requests responded to by this memory
system.mem_ctrls.num_writes::total           13814729                       # Number of write requests responded to by this memory
system.mem_ctrls.bw_read::cpu.inst              13056                       # Total read bandwidth from this memory (bytes/s)
system.mem_ctrls.bw_read::cpu.data          208043899                       # Total read bandwidth from this memory (bytes/s)
system.mem_ctrls.bw_read::total             208056954                       # Total read bandwidth from this memory (bytes/s)
system.mem_ctrls.bw_inst_read::cpu.inst         13056                       # Instruction read bandwidth from this memory (bytes/s)
system.mem_ctrls.bw_inst_read::total            13056                       # Instruction read bandwidth from this memory (bytes/s)
system.mem_ctrls.bw_write::writebacks       207549751                       # Write bandwidth from this memory (bytes/s)
system.mem_ctrls.bw_write::total            207549751                       # Write bandwidth from this memory (bytes/s)
system.mem_ctrls.bw_total::writebacks       207549751                       # Total bandwidth to/from this memory (bytes/s)
system.mem_ctrls.bw_total::cpu.inst             13056                       # Total bandwidth to/from this memory (bytes/s)
system.mem_ctrls.bw_total::cpu.data         208043899                       # Total bandwidth to/from this memory (bytes/s)
system.mem_ctrls.bw_total::total            415606705                       # Total bandwidth to/from this memory (bytes/s)
system.mem_ctrls.readReqs                    13848489                       # Number of read requests accepted
system.mem_ctrls.writeReqs                   13814729                       # Number of write requests accepted
system.mem_ctrls.readBursts                  13848489                       # Number of DRAM read bursts, including those serviced by the write queue
system.mem_ctrls.writeBursts                 13814729                       # Number of DRAM write bursts, including those merged in the write queue
system.mem_ctrls.bytesReadDRAM              886303296                       # Total number of bytes read from DRAM
system.mem_ctrls.bytesReadWrQ                       0                       # Total number of bytes read from write queue
system.mem_ctrls.bytesWritten               456414848                       # Total number of bytes written to DRAM
system.mem_ctrls.bytesReadSys               443151648                       # Total read bytes from the system interface side
system.mem_ctrls.bytesWrittenSys            442071328                       # Total written bytes from the system interface side
system.mem_ctrls.servicedByWrQ                      0                       # Number of DRAM read bursts serviced by the write queue
system.mem_ctrls.mergedWrBursts               6683217                       # Number of DRAM write bursts merged with an existing one
system.mem_ctrls.neitherReadNorWriteReqs            0                       # Number of requests that are neither read nor write
system.mem_ctrls.perBankRdBursts::0            865837                       # Per bank write bursts
system.mem_ctrls.perBankRdBursts::1            865569                       # Per bank write bursts
system.mem_ctrls.perBankRdBursts::2            865764                       # Per bank write bursts
system.mem_ctrls.perBankRdBursts::3            865563                       # Per bank write bursts
system.mem_ctrls.perBankRdBursts::4            865591                       # Per bank write bursts
system.mem_ctrls.perBankRdBursts::5            865580                       # Per bank write bursts
system.mem_ctrls.perBankRdBursts::6            865527                       # Per bank write bursts
system.mem_ctrls.perBankRdBursts::7            865362                       # Per bank write bursts
system.mem_ctrls.perBankRdBursts::8            865271                       # Per bank write bursts
system.mem_ctrls.perBankRdBursts::9            865440                       # Per bank write bursts
system.mem_ctrls.perBankRdBursts::10           865355                       # Per bank write bursts
system.mem_ctrls.perBankRdBursts::11           865476                       # Per bank write bursts
system.mem_ctrls.perBankRdBursts::12           865545                       # Per bank write bursts
system.mem_ctrls.perBankRdBursts::13           865405                       # Per bank write bursts
system.mem_ctrls.perBankRdBursts::14           865685                       # Per bank write bursts
system.mem_ctrls.perBankRdBursts::15           865519                       # Per bank write bursts
system.mem_ctrls.perBankWrBursts::0            446170                       # Per bank write bursts
system.mem_ctrls.perBankWrBursts::1            445693                       # Per bank write bursts
system.mem_ctrls.perBankWrBursts::2            445812                       # Per bank write bursts
system.mem_ctrls.perBankWrBursts::3            445686                       # Per bank write bursts
system.mem_ctrls.perBankWrBursts::4            445713                       # Per bank write bursts
system.mem_ctrls.perBankWrBursts::5            445753                       # Per bank write bursts
system.mem_ctrls.perBankWrBursts::6            445626                       # Per bank write bursts
system.mem_ctrls.perBankWrBursts::7            445584                       # Per bank write bursts
system.mem_ctrls.perBankWrBursts::8            445853                       # Per bank write bursts
system.mem_ctrls.perBankWrBursts::9            445646                       # Per bank write bursts
system.mem_ctrls.perBankWrBursts::10           445562                       # Per bank write bursts
system.mem_ctrls.perBankWrBursts::11           445670                       # Per bank write bursts
system.mem_ctrls.perBankWrBursts::12           445636                       # Per bank write bursts
system.mem_ctrls.perBankWrBursts::13           445603                       # Per bank write bursts
system.mem_ctrls.perBankWrBursts::14           445827                       # Per bank write bursts
system.mem_ctrls.perBankWrBursts::15           445648                       # Per bank write bursts
system.mem_ctrls.numRdRetry                         0                       # Number of times read queue was full causing retry
system.mem_ctrls.numWrRetry                         0                       # Number of times write queue was full causing retry
system.mem_ctrls.totGap                  2129091178500                       # Total gap between requests
system.mem_ctrls.readPktSize::0                     0                       # Read request sizes (log2)
system.mem_ctrls.readPktSize::1                     0                       # Read request sizes (log2)
system.mem_ctrls.readPktSize::2                     0                       # Read request sizes (log2)
system.mem_ctrls.readPktSize::3                     0                       # Read request sizes (log2)
system.mem_ctrls.readPktSize::4                     0                       # Read request sizes (log2)
system.mem_ctrls.readPktSize::5              13848489                       # Read request sizes (log2)
system.mem_ctrls.readPktSize::6                     0                       # Read request sizes (log2)
system.mem_ctrls.writePktSize::0                    0                       # Write request sizes (log2)
system.mem_ctrls.writePktSize::1                    0                       # Write request sizes (log2)
system.mem_ctrls.writePktSize::2                    0                       # Write request sizes (log2)
system.mem_ctrls.writePktSize::3                    0                       # Write request sizes (log2)
system.mem_ctrls.writePktSize::4                    0                       # Write request sizes (log2)
system.mem_ctrls.writePktSize::5             13814729                       # Write request sizes (log2)
system.mem_ctrls.writePktSize::6                    0                       # Write request sizes (log2)
system.mem_ctrls.rdQLenPdf::0                13848489                       # What read queue length does an incoming req see
system.mem_ctrls.rdQLenPdf::1                       0                       # What read queue length does an incoming req see
system.mem_ctrls.rdQLenPdf::2                       0                       # What read queue length does an incoming req see
system.mem_ctrls.rdQLenPdf::3                       0                       # What read queue length does an incoming req see
system.mem_ctrls.rdQLenPdf::4                       0                       # What read queue length does an incoming req see
system.mem_ctrls.rdQLenPdf::5                       0                       # What read queue length does an incoming req see
system.mem_ctrls.rdQLenPdf::6                       0                       # What read queue length does an incoming req see
system.mem_ctrls.rdQLenPdf::7                       0                       # What read queue length does an incoming req see
system.mem_ctrls.rdQLenPdf::8                       0                       # What read queue length does an incoming req see
system.mem_ctrls.rdQLenPdf::9                       0                       # What read queue length does an incoming req see
system.mem_ctrls.rdQLenPdf::10                      0                       # What read queue length does an incoming req see
system.mem_ctrls.rdQLenPdf::11                      0                       # What read queue length does an incoming req see
system.mem_ctrls.rdQLenPdf::12                      0                       # What read queue length does an incoming req see
system.mem_ctrls.rdQLenPdf::13                      0                       # What read queue length does an incoming req see
system.mem_ctrls.rdQLenPdf::14                      0                       # What read queue length does an incoming req see
system.mem_ctrls.rdQLenPdf::15                      0                       # What read queue length does an incoming req see
system.mem_ctrls.rdQLenPdf::16                      0                       # What read queue length does an incoming req see
system.mem_ctrls.rdQLenPdf::17                      0                       # What read queue length does an incoming req see
system.mem_ctrls.rdQLenPdf::18                      0                       # What read queue length does an incoming req see
system.mem_ctrls.rdQLenPdf::19                      0                       # What read queue length does an incoming req see
system.mem_ctrls.rdQLenPdf::20                      0                       # What read queue length does an incoming req see
system.mem_ctrls.rdQLenPdf::21                      0                       # What read queue length does an incoming req see
system.mem_ctrls.rdQLenPdf::22                      0                       # What read queue length does an incoming req see
system.mem_ctrls.rdQLenPdf::23                      0                       # What read queue length does an incoming req see
system.mem_ctrls.rdQLenPdf::24                      0                       # What read queue length does an incoming req see
system.mem_ctrls.rdQLenPdf::25                      0                       # What read queue length does an incoming req see
system.mem_ctrls.rdQLenPdf::26                      0                       # What read queue length does an incoming req see
system.mem_ctrls.rdQLenPdf::27                      0                       # What read queue length does an incoming req see
system.mem_ctrls.rdQLenPdf::28                      0                       # What read queue length does an incoming req see
system.mem_ctrls.rdQLenPdf::29                      0                       # What read queue length does an incoming req see
system.mem_ctrls.rdQLenPdf::30                      0                       # What read queue length does an incoming req see
system.mem_ctrls.rdQLenPdf::31                      0                       # What read queue length does an incoming req see
system.mem_ctrls.wrQLenPdf::0                       1                       # What write queue length does an incoming req see
system.mem_ctrls.wrQLenPdf::1                       1                       # What write queue length does an incoming req see
system.mem_ctrls.wrQLenPdf::2                       1                       # What write queue length does an incoming req see
system.mem_ctrls.wrQLenPdf::3                       1                       # What write queue length does an incoming req see
system.mem_ctrls.wrQLenPdf::4                       1                       # What write queue length does an incoming req see
system.mem_ctrls.wrQLenPdf::5                       1                       # What write queue length does an incoming req see
system.mem_ctrls.wrQLenPdf::6                       1                       # What write queue length does an incoming req see
system.mem_ctrls.wrQLenPdf::7                       1                       # What write queue length does an incoming req see
system.mem_ctrls.wrQLenPdf::8                       1                       # What write queue length does an incoming req see
system.mem_ctrls.wrQLenPdf::9                       1                       # What write queue length does an incoming req see
system.mem_ctrls.wrQLenPdf::10                      1                       # What write queue length does an incoming req see
system.mem_ctrls.wrQLenPdf::11                      1                       # What write queue length does an incoming req see
system.mem_ctrls.wrQLenPdf::12                      1                       # What write queue length does an incoming req see
system.mem_ctrls.wrQLenPdf::13                      1                       # What write queue length does an incoming req see
system.mem_ctrls.wrQLenPdf::14                      1                       # What write queue length does an incoming req see
system.mem_ctrls.wrQLenPdf::15                  56853                       # What write queue length does an incoming req see
system.mem_ctrls.wrQLenPdf::16                 203749                       # What write queue length does an incoming req see
system.mem_ctrls.wrQLenPdf::17                 429431                       # What write queue length does an incoming req see
system.mem_ctrls.wrQLenPdf::18                 429431                       # What write queue length does an incoming req see
system.mem_ctrls.wrQLenPdf::19                 429431                       # What write queue length does an incoming req see
system.mem_ctrls.wrQLenPdf::20                 429431                       # What write queue length does an incoming req see
system.mem_ctrls.wrQLenPdf::21                 429431                       # What write queue length does an incoming req see
system.mem_ctrls.wrQLenPdf::22                 429431                       # What write queue length does an incoming req see
system.mem_ctrls.wrQLenPdf::23                 429432                       # What write queue length does an incoming req see
system.mem_ctrls.wrQLenPdf::24                 429432                       # What write queue length does an incoming req see
system.mem_ctrls.wrQLenPdf::25                 429431                       # What write queue length does an incoming req see
system.mem_ctrls.wrQLenPdf::26                 429431                       # What write queue length does an incoming req see
system.mem_ctrls.wrQLenPdf::27                 429431                       # What write queue length does an incoming req see
system.mem_ctrls.wrQLenPdf::28                 429431                       # What write queue length does an incoming req see
system.mem_ctrls.wrQLenPdf::29                 429431                       # What write queue length does an incoming req see
system.mem_ctrls.wrQLenPdf::30                 429430                       # What write queue length does an incoming req see
system.mem_ctrls.wrQLenPdf::31                 429430                       # What write queue length does an incoming req see
system.mem_ctrls.wrQLenPdf::32                 429430                       # What write queue length does an incoming req see
system.mem_ctrls.wrQLenPdf::33                      0                       # What write queue length does an incoming req see
system.mem_ctrls.wrQLenPdf::34                      0                       # What write queue length does an incoming req see
system.mem_ctrls.wrQLenPdf::35                      0                       # What write queue length does an incoming req see
system.mem_ctrls.wrQLenPdf::36                      0                       # What write queue length does an incoming req see
system.mem_ctrls.wrQLenPdf::37                      0                       # What write queue length does an incoming req see
system.mem_ctrls.wrQLenPdf::38                      0                       # What write queue length does an incoming req see
system.mem_ctrls.wrQLenPdf::39                      0                       # What write queue length does an incoming req see
system.mem_ctrls.wrQLenPdf::40                      0                       # What write queue length does an incoming req see
system.mem_ctrls.wrQLenPdf::41                      0                       # What write queue length does an incoming req see
system.mem_ctrls.wrQLenPdf::42                      0                       # What write queue length does an incoming req see
system.mem_ctrls.wrQLenPdf::43                      0                       # What write queue length does an incoming req see
system.mem_ctrls.wrQLenPdf::44                      0                       # What write queue length does an incoming req see
system.mem_ctrls.wrQLenPdf::45                      0                       # What write queue length does an incoming req see
system.mem_ctrls.wrQLenPdf::46                      0                       # What write queue length does an incoming req see
system.mem_ctrls.wrQLenPdf::47                      0                       # What write queue length does an incoming req see
system.mem_ctrls.wrQLenPdf::48                      0                       # What write queue length does an incoming req see
system.mem_ctrls.wrQLenPdf::49                      0                       # What write queue length does an incoming req see
system.mem_ctrls.wrQLenPdf::50                      0                       # What write queue length does an incoming req see
system.mem_ctrls.wrQLenPdf::51                      0                       # What write queue length does an incoming req see
system.mem_ctrls.wrQLenPdf::52                      0                       # What write queue length does an incoming req see
system.mem_ctrls.wrQLenPdf::53                      0                       # What write queue length does an incoming req see
system.mem_ctrls.wrQLenPdf::54                      0                       # What write queue length does an incoming req see
system.mem_ctrls.wrQLenPdf::55                      0                       # What write queue length does an incoming req see
system.mem_ctrls.wrQLenPdf::56                      0                       # What write queue length does an incoming req see
system.mem_ctrls.wrQLenPdf::57                      0                       # What write queue length does an incoming req see
system.mem_ctrls.wrQLenPdf::58                      0                       # What write queue length does an incoming req see
system.mem_ctrls.wrQLenPdf::59                      0                       # What write queue length does an incoming req see
system.mem_ctrls.wrQLenPdf::60                      0                       # What write queue length does an incoming req see
system.mem_ctrls.wrQLenPdf::61                      0                       # What write queue length does an incoming req see
system.mem_ctrls.wrQLenPdf::62                      0                       # What write queue length does an incoming req see
system.mem_ctrls.wrQLenPdf::63                      0                       # What write queue length does an incoming req see
system.mem_ctrls.bytesPerActivate::samples      1925298                       # Bytes accessed per row activation
system.mem_ctrls.bytesPerActivate::mean    697.407957                       # Bytes accessed per row activation
system.mem_ctrls.bytesPerActivate::gmean   508.366337                       # Bytes accessed per row activation
system.mem_ctrls.bytesPerActivate::stdev   384.406931                       # Bytes accessed per row activation
system.mem_ctrls.bytesPerActivate::0-127       213617     11.10%     11.10% # Bytes accessed per row activation
system.mem_ctrls.bytesPerActivate::128-255       202222     10.50%     21.60% # Bytes accessed per row activation
system.mem_ctrls.bytesPerActivate::256-383       125188      6.50%     28.10% # Bytes accessed per row activation
system.mem_ctrls.bytesPerActivate::384-511        92674      4.81%     32.91% # Bytes accessed per row activation
system.mem_ctrls.bytesPerActivate::512-639        87044      4.52%     37.44% # Bytes accessed per row activation
system.mem_ctrls.bytesPerActivate::640-767        80131      4.16%     41.60% # Bytes accessed per row activation
system.mem_ctrls.bytesPerActivate::768-895        93931      4.88%     46.48% # Bytes accessed per row activation
system.mem_ctrls.bytesPerActivate::896-1023        80691      4.19%     50.67% # Bytes accessed per row activation
system.mem_ctrls.bytesPerActivate::1024-1151       949800     49.33%    100.00% # Bytes accessed per row activation
system.mem_ctrls.bytesPerActivate::total      1925298                       # Bytes accessed per row activation
system.mem_ctrls.rdPerTurnAround::samples       429430                       # Reads before turning the bus around for writes
system.mem_ctrls.rdPerTurnAround::mean      32.248502                       # Reads before turning the bus around for writes
system.mem_ctrls.rdPerTurnAround::gmean     31.849988                       # Reads before turning the bus around for writes
system.mem_ctrls.rdPerTurnAround::stdev     43.825399                       # Reads before turning the bus around for writes
system.mem_ctrls.rdPerTurnAround::0-1023       429428    100.00%    100.00% # Reads before turning the bus around for writes
system.mem_ctrls.rdPerTurnAround::4096-5119            1      0.00%    100.00% # Reads before turning the bus around for writes
system.mem_ctrls.rdPerTurnAround::27648-28671            1      0.00%    100.00% # Reads before turning the bus around for writes
system.mem_ctrls.rdPerTurnAround::total        429430                       # Reads before turning the bus around for writes
system.mem_ctrls.wrPerTurnAround::samples       429430                       # Writes before turning the bus around for reads
system.mem_ctrls.wrPerTurnAround::mean      16.606856                       # Writes before turning the bus around for reads
system.mem_ctrls.wrPerTurnAround::gmean     16.591992                       # Writes before turning the bus around for reads
system.mem_ctrls.wrPerTurnAround::stdev      0.709493                       # Writes before turning the bus around for reads
system.mem_ctrls.wrPerTurnAround::16           225682     52.55%     52.55% # Writes before turning the bus around for reads
system.mem_ctrls.wrPerTurnAround::17           146896     34.21%     86.76% # Writes before turning the bus around for reads
system.mem_ctrls.wrPerTurnAround::18            56850     13.24%    100.00% # Writes before turning the bus around for reads
system.mem_ctrls.wrPerTurnAround::19                2      0.00%    100.00% # Writes before turning the bus around for reads
system.mem_ctrls.wrPerTurnAround::total        429430                       # Writes before turning the bus around for reads
system.mem_ctrls.totQLat                 189801337500                       # Total ticks spent queuing
system.mem_ctrls.totMemAccLat            449460506250                       # Total ticks spent from burst creation until serviced by the DRAM
system.mem_ctrls.totBusLat                69242445000                       # Total ticks spent in databus transfers
system.mem_ctrls.avgQLat                     13705.56                       # Average queueing delay per DRAM burst
system.mem_ctrls.avgBusLat                    5000.00                       # Average bus latency per DRAM burst
system.mem_ctrls.avgMemAccLat                32455.56                       # Average memory access latency per DRAM burst
system.mem_ctrls.avgRdBW                       416.11                       # Average DRAM read bandwidth in MiByte/s
system.mem_ctrls.avgWrBW                       214.28                       # Average achieved write bandwidth in MiByte/s
system.mem_ctrls.avgRdBWSys                    208.06                       # Average system read bandwidth in MiByte/s
system.mem_ctrls.avgWrBWSys                    207.55                       # Average system write bandwidth in MiByte/s
system.mem_ctrls.peakBW                      12800.00                       # Theoretical peak bandwidth in MiByte/s
system.mem_ctrls.busUtil                         4.92                       # Data bus utilization in percentage
system.mem_ctrls.busUtilRead                     3.25                       # Data bus utilization in percentage for reads
system.mem_ctrls.busUtilWrite                    1.67                       # Data bus utilization in percentage for writes
system.mem_ctrls.avgRdQLen                       1.00                       # Average read queue length when enqueuing
system.mem_ctrls.avgWrQLen                      25.29                       # Average write queue length when enqueuing
system.mem_ctrls.readRowHits                 12645165                       # Number of row buffer hits during reads
system.mem_ctrls.writeRowHits                 6409508                       # Number of row buffer hits during writes
system.mem_ctrls.readRowHitRate                 91.31                       # Row buffer hit rate for reads
system.mem_ctrls.writeRowHitRate                89.88                       # Row buffer hit rate for writes
system.mem_ctrls.avgGap                      76964.70                       # Average gap between requests
system.mem_ctrls.pageHitRate                    90.82                       # Row buffer hit rate, read and write combined
system.mem_ctrls_0.actEnergy               6873178200                       # Energy for activate commands per rank (pJ)
system.mem_ctrls_0.preEnergy               3653180850                       # Energy for precharge commands per rank (pJ)
system.mem_ctrls_0.readEnergy             49443022020                       # Energy for read commands per rank (pJ)
system.mem_ctrls_0.writeEnergy            18614713140                       # Energy for write commands per rank (pJ)
system.mem_ctrls_0.refreshEnergy         95559310080.000015                       # Energy for refresh commands per rank (pJ)
system.mem_ctrls_0.actBackEnergy         122872920390                       # Energy for active background per rank (pJ)
system.mem_ctrls_0.preBackEnergy           6335477760                       # Energy for precharge background per rank (pJ)
system.mem_ctrls_0.actPowerDownEnergy    353487366180                       # Energy for active power-down per rank (pJ)
system.mem_ctrls_0.prePowerDownEnergy     35649022080                       # Energy for precharge power-down per rank (pJ)
system.mem_ctrls_0.selfRefreshEnergy     238541503245                       # Energy for self refresh per rank (pJ)
system.mem_ctrls_0.totalEnergy           931033184235                       # Total energy per rank (pJ)
system.mem_ctrls_0.averagePower            437.114313                       # Core power per rank (mW)
system.mem_ctrls_0.totalIdleTime         1843130889500                       # Total Idle time Per DRAM Rank
system.mem_ctrls_0.memoryStateTime::IDLE   4310950000                       # Time in different power states
system.mem_ctrls_0.memoryStateTime::REF   40489650000                       # Time in different power states
system.mem_ctrls_0.memoryStateTime::SREF 975961371500                       # Time in different power states
system.mem_ctrls_0.memoryStateTime::PRE_PDN  92836013250                       # Time in different power states
system.mem_ctrls_0.memoryStateTime::ACT  241164249000                       # Time in different power states
system.mem_ctrls_0.memoryStateTime::ACT_PDN 775191313750                       # Time in different power states
system.mem_ctrls_1.actEnergy               6873449520                       # Energy for activate commands per rank (pJ)
system.mem_ctrls_1.preEnergy               3653325060                       # Energy for precharge commands per rank (pJ)
system.mem_ctrls_1.readEnergy             49435189440                       # Energy for read commands per rank (pJ)
system.mem_ctrls_1.writeEnergy            18611622900                       # Energy for write commands per rank (pJ)
system.mem_ctrls_1.refreshEnergy         95516285280.000015                       # Energy for refresh commands per rank (pJ)
system.mem_ctrls_1.actBackEnergy         122901093780                       # Energy for active background per rank (pJ)
system.mem_ctrls_1.preBackEnergy           6320856000                       # Energy for precharge background per rank (pJ)
system.mem_ctrls_1.actPowerDownEnergy    353202146730                       # Energy for active power-down per rank (pJ)
system.mem_ctrls_1.prePowerDownEnergy     35576702880                       # Energy for precharge power-down per rank (pJ)
system.mem_ctrls_1.selfRefreshEnergy     238749611955                       # Energy for self refresh per rank (pJ)
system.mem_ctrls_1.totalEnergy           930843133095                       # Total energy per rank (pJ)
system.mem_ctrls_1.averagePower            437.025086                       # Core power per rank (mW)
system.mem_ctrls_1.totalIdleTime         1843119183000                       # Total Idle time Per DRAM Rank
system.mem_ctrls_1.memoryStateTime::IDLE   4277979250                       # Time in different power states
system.mem_ctrls_1.memoryStateTime::REF   40471648000                       # Time in different power states
system.mem_ctrls_1.memoryStateTime::SREF 976752917500                       # Time in different power states
system.mem_ctrls_1.memoryStateTime::PRE_PDN  92647641750                       # Time in different power states
system.mem_ctrls_1.memoryStateTime::ACT  241237061250                       # Time in different power states
system.mem_ctrls_1.memoryStateTime::ACT_PDN 774566299750                       # Time in different power states
system.pwrStateResidencyTicks::UNDEFINED 2129953547500                       # Cumulative time (in ticks) in various power states
system.cpu_voltage_domain.voltage                   1                       # Voltage in Volts
system.cpu_clk_domain.clock                       500                       # Clock period in ticks
system.cpu.dtb.walker.pwrStateResidencyTicks::UNDEFINED 2129953547500                       # Cumulative time (in ticks) in various power states
system.cpu.apic_clk_domain.clock                 8000                       # Clock period in ticks
system.cpu.interrupts.pwrStateResidencyTicks::UNDEFINED 2129953547500                       # Cumulative time (in ticks) in various power states
system.cpu.itb.walker.pwrStateResidencyTicks::UNDEFINED 2129953547500                       # Cumulative time (in ticks) in various power states
system.cpu.workload.num_syscalls                  168                       # Number of system calls
system.cpu.pwrStateResidencyTicks::ON    2129953547500                       # Cumulative time (in ticks) in various power states
system.cpu.numCycles                       4259907095                       # number of cpu cycles simulated
system.cpu.numWorkItemsStarted                      0                       # number of work items this cpu started
system.cpu.numWorkItemsCompleted                    0                       # number of work items this cpu completed
system.cpu.committedInsts                   500000000                       # Number of instructions committed
system.cpu.committedOps                     648963383                       # Number of ops (including micro ops) committed
system.cpu.num_int_alu_accesses             648962728                       # Number of integer alu accesses
system.cpu.num_fp_alu_accesses                    848                       # Number of float alu accesses
system.cpu.num_func_calls                     2369346                       # number of times a function call or return occured
system.cpu.num_conditional_control_insts     15707705                       # number of instructions that are conditional controls
system.cpu.num_int_insts                    648962728                       # number of integer instructions
system.cpu.num_fp_insts                           848                       # number of float instructions
system.cpu.num_int_register_reads          1304344848                       # number of times the integer registers were read
system.cpu.num_int_register_writes          560057856                       # number of times the integer registers were written
system.cpu.num_fp_register_reads                 1341                       # number of times the floating registers were read
system.cpu.num_fp_register_writes                 581                       # number of times the floating registers were written
system.cpu.num_cc_register_reads             95274047                       # number of times the CC registers were read
system.cpu.num_cc_register_writes           257707815                       # number of times the CC registers were written
system.cpu.num_mem_refs                     216142387                       # number of memory refs
system.cpu.num_load_insts                   144433139                       # Number of load instructions
system.cpu.num_store_insts                   71709248                       # Number of store instructions
system.cpu.num_idle_cycles                          0                       # Number of idle cycles
system.cpu.num_busy_cycles                 4259907095                       # Number of busy cycles
system.cpu.not_idle_fraction                        1                       # Percentage of non-idle cycles
system.cpu.idle_fraction                            0                       # Percentage of idle cycles
system.cpu.Branches                          18089551                       # Number of branches fetched
system.cpu.op_class::No_OpClass                   160      0.00%      0.00% # Class of executed instruction
system.cpu.op_class::IntAlu                 431926300     66.56%     66.56% # Class of executed instruction
system.cpu.op_class::IntMult                   893946      0.14%     66.69% # Class of executed instruction
system.cpu.op_class::IntDiv                        70      0.00%     66.69% # Class of executed instruction
system.cpu.op_class::FloatAdd                     520      0.00%     66.69% # Class of executed instruction
system.cpu.op_class::FloatCmp                       0      0.00%     66.69% # Class of executed instruction
system.cpu.op_class::FloatCvt                       0      0.00%     66.69% # Class of executed instruction
system.cpu.op_class::FloatMult                      0      0.00%     66.69% # Class of executed instruction
system.cpu.op_class::FloatDiv                       0      0.00%     66.69% # Class of executed instruction
system.cpu.op_class::FloatSqrt                      0      0.00%     66.69% # Class of executed instruction
system.cpu.op_class::SimdAdd                        0      0.00%     66.69% # Class of executed instruction
system.cpu.op_class::SimdAddAcc                     0      0.00%     66.69% # Class of executed instruction
system.cpu.op_class::SimdAlu                        0      0.00%     66.69% # Class of executed instruction
system.cpu.op_class::SimdCmp                        0      0.00%     66.69% # Class of executed instruction
system.cpu.op_class::SimdCvt                        0      0.00%     66.69% # Class of executed instruction
system.cpu.op_class::SimdMisc                       0      0.00%     66.69% # Class of executed instruction
system.cpu.op_class::SimdMult                       0      0.00%     66.69% # Class of executed instruction
system.cpu.op_class::SimdMultAcc                    0      0.00%     66.69% # Class of executed instruction
system.cpu.op_class::SimdShift                      0      0.00%     66.69% # Class of executed instruction
system.cpu.op_class::SimdShiftAcc                   0      0.00%     66.69% # Class of executed instruction
system.cpu.op_class::SimdSqrt                       0      0.00%     66.69% # Class of executed instruction
system.cpu.op_class::SimdFloatAdd                   0      0.00%     66.69% # Class of executed instruction
system.cpu.op_class::SimdFloatAlu                   0      0.00%     66.69% # Class of executed instruction
system.cpu.op_class::SimdFloatCmp                   0      0.00%     66.69% # Class of executed instruction
system.cpu.op_class::SimdFloatCvt                   0      0.00%     66.69% # Class of executed instruction
system.cpu.op_class::SimdFloatDiv                   0      0.00%     66.69% # Class of executed instruction
system.cpu.op_class::SimdFloatMisc                  0      0.00%     66.69% # Class of executed instruction
system.cpu.op_class::SimdFloatMult                  0      0.00%     66.69% # Class of executed instruction
system.cpu.op_class::SimdFloatMultAcc               0      0.00%     66.69% # Class of executed instruction
system.cpu.op_class::SimdFloatSqrt                  0      0.00%     66.69% # Class of executed instruction
system.cpu.op_class::MemRead                144433139     22.26%     88.95% # Class of executed instruction
system.cpu.op_class::MemWrite                71709248     11.05%    100.00% # Class of executed instruction
system.cpu.op_class::IprAccess                      0      0.00%    100.00% # Class of executed instruction
system.cpu.op_class::InstPrefetch                   0      0.00%    100.00% # Class of executed instruction
system.cpu.op_class::total                  648963383                       # Class of executed instruction
system.cpu.dcache.tags.pwrStateResidencyTicks::UNDEFINED 2129953547500                       # Cumulative time (in ticks) in various power states
system.cpu.dcache.tags.replacements          13875315                       # number of replacements
system.cpu.dcache.tags.tagsinuse          2047.790430                       # Cycle average of tags in use
system.cpu.dcache.tags.total_refs           202265044                       # Total number of references to valid blocks.
system.cpu.dcache.tags.sampled_refs          13877363                       # Sample count of references to valid blocks.
system.cpu.dcache.tags.avg_refs             14.575179                       # Average number of references to valid blocks.
system.cpu.dcache.tags.warmup_cycle         413781500                       # Cycle when the warmup percentage was hit.
system.cpu.dcache.tags.occ_blocks::cpu.data  2047.790430                       # Average occupied blocks per requestor
system.cpu.dcache.tags.occ_percent::cpu.data     0.999898                       # Average percentage of cache occupancy
system.cpu.dcache.tags.occ_percent::total     0.999898                       # Average percentage of cache occupancy
system.cpu.dcache.tags.occ_task_id_blocks::1024         2048                       # Occupied blocks per task id
system.cpu.dcache.tags.age_task_id_blocks_1024::2           45                       # Occupied blocks per task id
system.cpu.dcache.tags.age_task_id_blocks_1024::3         1981                       # Occupied blocks per task id
system.cpu.dcache.tags.age_task_id_blocks_1024::4           22                       # Occupied blocks per task id
system.cpu.dcache.tags.occ_task_id_percent::1024            1                       # Percentage of cache occupancy per task id
system.cpu.dcache.tags.tag_accesses         878446991                       # Number of tag accesses
system.cpu.dcache.tags.data_accesses        878446991                       # Number of data accesses
system.cpu.dcache.pwrStateResidencyTicks::UNDEFINED 2129953547500                       # Cumulative time (in ticks) in various power states
system.cpu.dcache.ReadReq_hits::cpu.data    143956270                       # number of ReadReq hits
system.cpu.dcache.ReadReq_hits::total       143956270                       # number of ReadReq hits
system.cpu.dcache.WriteReq_hits::cpu.data     58308774                       # number of WriteReq hits
system.cpu.dcache.WriteReq_hits::total       58308774                       # number of WriteReq hits
system.cpu.dcache.demand_hits::cpu.data     202265044                       # number of demand (read+write) hits
system.cpu.dcache.demand_hits::total        202265044                       # number of demand (read+write) hits
system.cpu.dcache.overall_hits::cpu.data    202265044                       # number of overall hits
system.cpu.dcache.overall_hits::total       202265044                       # number of overall hits
system.cpu.dcache.ReadReq_misses::cpu.data       476886                       # number of ReadReq misses
system.cpu.dcache.ReadReq_misses::total        476886                       # number of ReadReq misses
system.cpu.dcache.WriteReq_misses::cpu.data     13400477                       # number of WriteReq misses
system.cpu.dcache.WriteReq_misses::total     13400477                       # number of WriteReq misses
system.cpu.dcache.demand_misses::cpu.data     13877363                       # number of demand (read+write) misses
system.cpu.dcache.demand_misses::total       13877363                       # number of demand (read+write) misses
system.cpu.dcache.overall_misses::cpu.data     13877363                       # number of overall misses
system.cpu.dcache.overall_misses::total      13877363                       # number of overall misses
system.cpu.dcache.ReadReq_miss_latency::cpu.data  40372656500                       # number of ReadReq miss cycles
system.cpu.dcache.ReadReq_miss_latency::total  40372656500                       # number of ReadReq miss cycles
system.cpu.dcache.WriteReq_miss_latency::cpu.data 1147032895000                       # number of WriteReq miss cycles
system.cpu.dcache.WriteReq_miss_latency::total 1147032895000                       # number of WriteReq miss cycles
system.cpu.dcache.demand_miss_latency::cpu.data 1187405551500                       # number of demand (read+write) miss cycles
system.cpu.dcache.demand_miss_latency::total 1187405551500                       # number of demand (read+write) miss cycles
system.cpu.dcache.overall_miss_latency::cpu.data 1187405551500                       # number of overall miss cycles
system.cpu.dcache.overall_miss_latency::total 1187405551500                       # number of overall miss cycles
system.cpu.dcache.ReadReq_accesses::cpu.data    144433156                       # number of ReadReq accesses(hits+misses)
system.cpu.dcache.ReadReq_accesses::total    144433156                       # number of ReadReq accesses(hits+misses)
system.cpu.dcache.WriteReq_accesses::cpu.data     71709251                       # number of WriteReq accesses(hits+misses)
system.cpu.dcache.WriteReq_accesses::total     71709251                       # number of WriteReq accesses(hits+misses)
system.cpu.dcache.demand_accesses::cpu.data    216142407                       # number of demand (read+write) accesses
system.cpu.dcache.demand_accesses::total    216142407                       # number of demand (read+write) accesses
system.cpu.dcache.overall_accesses::cpu.data    216142407                       # number of overall (read+write) accesses
system.cpu.dcache.overall_accesses::total    216142407                       # number of overall (read+write) accesses
system.cpu.dcache.ReadReq_miss_rate::cpu.data     0.003302                       # miss rate for ReadReq accesses
system.cpu.dcache.ReadReq_miss_rate::total     0.003302                       # miss rate for ReadReq accesses
system.cpu.dcache.WriteReq_miss_rate::cpu.data     0.186872                       # miss rate for WriteReq accesses
system.cpu.dcache.WriteReq_miss_rate::total     0.186872                       # miss rate for WriteReq accesses
system.cpu.dcache.demand_miss_rate::cpu.data     0.064205                       # miss rate for demand accesses
system.cpu.dcache.demand_miss_rate::total     0.064205                       # miss rate for demand accesses
system.cpu.dcache.overall_miss_rate::cpu.data     0.064205                       # miss rate for overall accesses
system.cpu.dcache.overall_miss_rate::total     0.064205                       # miss rate for overall accesses
system.cpu.dcache.ReadReq_avg_miss_latency::cpu.data 84658.925823                       # average ReadReq miss latency
system.cpu.dcache.ReadReq_avg_miss_latency::total 84658.925823                       # average ReadReq miss latency
system.cpu.dcache.WriteReq_avg_miss_latency::cpu.data 85596.422799                       # average WriteReq miss latency
system.cpu.dcache.WriteReq_avg_miss_latency::total 85596.422799                       # average WriteReq miss latency
system.cpu.dcache.demand_avg_miss_latency::cpu.data 85564.206363                       # average overall miss latency
system.cpu.dcache.demand_avg_miss_latency::total 85564.206363                       # average overall miss latency
system.cpu.dcache.overall_avg_miss_latency::cpu.data 85564.206363                       # average overall miss latency
system.cpu.dcache.overall_avg_miss_latency::total 85564.206363                       # average overall miss latency
system.cpu.dcache.blocked_cycles::no_mshrs            0                       # number of cycles access was blocked
system.cpu.dcache.blocked_cycles::no_targets            0                       # number of cycles access was blocked
system.cpu.dcache.blocked::no_mshrs                 0                       # number of cycles access was blocked
system.cpu.dcache.blocked::no_targets               0                       # number of cycles access was blocked
system.cpu.dcache.avg_blocked_cycles::no_mshrs          nan                       # average number of cycles each access was blocked
system.cpu.dcache.avg_blocked_cycles::no_targets          nan                       # average number of cycles each access was blocked
system.cpu.dcache.writebacks::writebacks     13846157                       # number of writebacks
system.cpu.dcache.writebacks::total          13846157                       # number of writebacks
system.cpu.dcache.ReadReq_mshr_misses::cpu.data       476886                       # number of ReadReq MSHR misses
system.cpu.dcache.ReadReq_mshr_misses::total       476886                       # number of ReadReq MSHR misses
system.cpu.dcache.WriteReq_mshr_misses::cpu.data     13400477                       # number of WriteReq MSHR misses
system.cpu.dcache.WriteReq_mshr_misses::total     13400477                       # number of WriteReq MSHR misses
system.cpu.dcache.demand_mshr_misses::cpu.data     13877363                       # number of demand (read+write) MSHR misses
system.cpu.dcache.demand_mshr_misses::total     13877363                       # number of demand (read+write) MSHR misses
system.cpu.dcache.overall_mshr_misses::cpu.data     13877363                       # number of overall MSHR misses
system.cpu.dcache.overall_mshr_misses::total     13877363                       # number of overall MSHR misses
system.cpu.dcache.ReadReq_mshr_miss_latency::cpu.data  39895770500                       # number of ReadReq MSHR miss cycles
system.cpu.dcache.ReadReq_mshr_miss_latency::total  39895770500                       # number of ReadReq MSHR miss cycles
system.cpu.dcache.WriteReq_mshr_miss_latency::cpu.data 1133632418000                       # number of WriteReq MSHR miss cycles
system.cpu.dcache.WriteReq_mshr_miss_latency::total 1133632418000                       # number of WriteReq MSHR miss cycles
system.cpu.dcache.demand_mshr_miss_latency::cpu.data 1173528188500                       # number of demand (read+write) MSHR miss cycles
system.cpu.dcache.demand_mshr_miss_latency::total 1173528188500                       # number of demand (read+write) MSHR miss cycles
system.cpu.dcache.overall_mshr_miss_latency::cpu.data 1173528188500                       # number of overall MSHR miss cycles
system.cpu.dcache.overall_mshr_miss_latency::total 1173528188500                       # number of overall MSHR miss cycles
system.cpu.dcache.ReadReq_mshr_miss_rate::cpu.data     0.003302                       # mshr miss rate for ReadReq accesses
system.cpu.dcache.ReadReq_mshr_miss_rate::total     0.003302                       # mshr miss rate for ReadReq accesses
system.cpu.dcache.WriteReq_mshr_miss_rate::cpu.data     0.186872                       # mshr miss rate for WriteReq accesses
system.cpu.dcache.WriteReq_mshr_miss_rate::total     0.186872                       # mshr miss rate for WriteReq accesses
system.cpu.dcache.demand_mshr_miss_rate::cpu.data     0.064205                       # mshr miss rate for demand accesses
system.cpu.dcache.demand_mshr_miss_rate::total     0.064205                       # mshr miss rate for demand accesses
system.cpu.dcache.overall_mshr_miss_rate::cpu.data     0.064205                       # mshr miss rate for overall accesses
system.cpu.dcache.overall_mshr_miss_rate::total     0.064205                       # mshr miss rate for overall accesses
system.cpu.dcache.ReadReq_avg_mshr_miss_latency::cpu.data 83658.925823                       # average ReadReq mshr miss latency
system.cpu.dcache.ReadReq_avg_mshr_miss_latency::total 83658.925823                       # average ReadReq mshr miss latency
system.cpu.dcache.WriteReq_avg_mshr_miss_latency::cpu.data 84596.422799                       # average WriteReq mshr miss latency
system.cpu.dcache.WriteReq_avg_mshr_miss_latency::total 84596.422799                       # average WriteReq mshr miss latency
system.cpu.dcache.demand_avg_mshr_miss_latency::cpu.data 84564.206363                       # average overall mshr miss latency
system.cpu.dcache.demand_avg_mshr_miss_latency::total 84564.206363                       # average overall mshr miss latency
system.cpu.dcache.overall_avg_mshr_miss_latency::cpu.data 84564.206363                       # average overall mshr miss latency
system.cpu.dcache.overall_avg_mshr_miss_latency::total 84564.206363                       # average overall mshr miss latency
system.cpu.dtb_walker_cache.tags.pwrStateResidencyTicks::UNDEFINED 2129953547500                       # Cumulative time (in ticks) in various power states
system.cpu.dtb_walker_cache.tags.replacements            0                       # number of replacements
system.cpu.dtb_walker_cache.tags.tagsinuse            0                       # Cycle average of tags in use
system.cpu.dtb_walker_cache.tags.total_refs            0                       # Total number of references to valid blocks.
system.cpu.dtb_walker_cache.tags.sampled_refs            0                       # Sample count of references to valid blocks.
system.cpu.dtb_walker_cache.tags.avg_refs          nan                       # Average number of references to valid blocks.
system.cpu.dtb_walker_cache.tags.warmup_cycle            0                       # Cycle when the warmup percentage was hit.
system.cpu.dtb_walker_cache.tags.tag_accesses            0                       # Number of tag accesses
system.cpu.dtb_walker_cache.tags.data_accesses            0                       # Number of data accesses
system.cpu.dtb_walker_cache.pwrStateResidencyTicks::UNDEFINED 2129953547500                       # Cumulative time (in ticks) in various power states
system.cpu.dtb_walker_cache.blocked_cycles::no_mshrs            0                       # number of cycles access was blocked
system.cpu.dtb_walker_cache.blocked_cycles::no_targets            0                       # number of cycles access was blocked
system.cpu.dtb_walker_cache.blocked::no_mshrs            0                       # number of cycles access was blocked
system.cpu.dtb_walker_cache.blocked::no_targets            0                       # number of cycles access was blocked
system.cpu.dtb_walker_cache.avg_blocked_cycles::no_mshrs          nan                       # average number of cycles each access was blocked
system.cpu.dtb_walker_cache.avg_blocked_cycles::no_targets          nan                       # average number of cycles each access was blocked
system.cpu.icache.tags.pwrStateResidencyTicks::UNDEFINED 2129953547500                       # Cumulative time (in ticks) in various power states
system.cpu.icache.tags.replacements               133                       # number of replacements
system.cpu.icache.tags.tagsinuse           704.324660                       # Cycle average of tags in use
system.cpu.icache.tags.total_refs           740207364                       # Total number of references to valid blocks.
system.cpu.icache.tags.sampled_refs               883                       # Sample count of references to valid blocks.
system.cpu.icache.tags.avg_refs          838286.935447                       # Average number of references to valid blocks.
system.cpu.icache.tags.warmup_cycle                 0                       # Cycle when the warmup percentage was hit.
system.cpu.icache.tags.occ_blocks::cpu.inst   704.324660                       # Average occupied blocks per requestor
system.cpu.icache.tags.occ_percent::cpu.inst     0.687817                       # Average percentage of cache occupancy
system.cpu.icache.tags.occ_percent::total     0.687817                       # Average percentage of cache occupancy
system.cpu.icache.tags.occ_task_id_blocks::1024          750                       # Occupied blocks per task id
system.cpu.icache.tags.age_task_id_blocks_1024::4          750                       # Occupied blocks per task id
system.cpu.icache.tags.occ_task_id_percent::1024     0.732422                       # Percentage of cache occupancy per task id
system.cpu.icache.tags.tag_accesses        2960833871                       # Number of tag accesses
system.cpu.icache.tags.data_accesses       2960833871                       # Number of data accesses
system.cpu.icache.pwrStateResidencyTicks::UNDEFINED 2129953547500                       # Cumulative time (in ticks) in various power states
system.cpu.icache.ReadReq_hits::cpu.inst    740207364                       # number of ReadReq hits
system.cpu.icache.ReadReq_hits::total       740207364                       # number of ReadReq hits
system.cpu.icache.demand_hits::cpu.inst     740207364                       # number of demand (read+write) hits
system.cpu.icache.demand_hits::total        740207364                       # number of demand (read+write) hits
system.cpu.icache.overall_hits::cpu.inst    740207364                       # number of overall hits
system.cpu.icache.overall_hits::total       740207364                       # number of overall hits
system.cpu.icache.ReadReq_misses::cpu.inst          883                       # number of ReadReq misses
system.cpu.icache.ReadReq_misses::total           883                       # number of ReadReq misses
system.cpu.icache.demand_misses::cpu.inst          883                       # number of demand (read+write) misses
system.cpu.icache.demand_misses::total            883                       # number of demand (read+write) misses
system.cpu.icache.overall_misses::cpu.inst          883                       # number of overall misses
system.cpu.icache.overall_misses::total           883                       # number of overall misses
system.cpu.icache.ReadReq_miss_latency::cpu.inst     75604500                       # number of ReadReq miss cycles
system.cpu.icache.ReadReq_miss_latency::total     75604500                       # number of ReadReq miss cycles
system.cpu.icache.demand_miss_latency::cpu.inst     75604500                       # number of demand (read+write) miss cycles
system.cpu.icache.demand_miss_latency::total     75604500                       # number of demand (read+write) miss cycles
system.cpu.icache.overall_miss_latency::cpu.inst     75604500                       # number of overall miss cycles
system.cpu.icache.overall_miss_latency::total     75604500                       # number of overall miss cycles
system.cpu.icache.ReadReq_accesses::cpu.inst    740208247                       # number of ReadReq accesses(hits+misses)
system.cpu.icache.ReadReq_accesses::total    740208247                       # number of ReadReq accesses(hits+misses)
system.cpu.icache.demand_accesses::cpu.inst    740208247                       # number of demand (read+write) accesses
system.cpu.icache.demand_accesses::total    740208247                       # number of demand (read+write) accesses
system.cpu.icache.overall_accesses::cpu.inst    740208247                       # number of overall (read+write) accesses
system.cpu.icache.overall_accesses::total    740208247                       # number of overall (read+write) accesses
system.cpu.icache.ReadReq_miss_rate::cpu.inst     0.000001                       # miss rate for ReadReq accesses
system.cpu.icache.ReadReq_miss_rate::total     0.000001                       # miss rate for ReadReq accesses
system.cpu.icache.demand_miss_rate::cpu.inst     0.000001                       # miss rate for demand accesses
system.cpu.icache.demand_miss_rate::total     0.000001                       # miss rate for demand accesses
system.cpu.icache.overall_miss_rate::cpu.inst     0.000001                       # miss rate for overall accesses
system.cpu.icache.overall_miss_rate::total     0.000001                       # miss rate for overall accesses
system.cpu.icache.ReadReq_avg_miss_latency::cpu.inst 85622.310306                       # average ReadReq miss latency
system.cpu.icache.ReadReq_avg_miss_latency::total 85622.310306                       # average ReadReq miss latency
system.cpu.icache.demand_avg_miss_latency::cpu.inst 85622.310306                       # average overall miss latency
system.cpu.icache.demand_avg_miss_latency::total 85622.310306                       # average overall miss latency
system.cpu.icache.overall_avg_miss_latency::cpu.inst 85622.310306                       # average overall miss latency
system.cpu.icache.overall_avg_miss_latency::total 85622.310306                       # average overall miss latency
system.cpu.icache.blocked_cycles::no_mshrs            0                       # number of cycles access was blocked
system.cpu.icache.blocked_cycles::no_targets            0                       # number of cycles access was blocked
system.cpu.icache.blocked::no_mshrs                 0                       # number of cycles access was blocked
system.cpu.icache.blocked::no_targets               0                       # number of cycles access was blocked
system.cpu.icache.avg_blocked_cycles::no_mshrs          nan                       # average number of cycles each access was blocked
system.cpu.icache.avg_blocked_cycles::no_targets          nan                       # average number of cycles each access was blocked
system.cpu.icache.writebacks::writebacks          133                       # number of writebacks
system.cpu.icache.writebacks::total               133                       # number of writebacks
system.cpu.icache.ReadReq_mshr_misses::cpu.inst          883                       # number of ReadReq MSHR misses
system.cpu.icache.ReadReq_mshr_misses::total          883                       # number of ReadReq MSHR misses
system.cpu.icache.demand_mshr_misses::cpu.inst          883                       # number of demand (read+write) MSHR misses
system.cpu.icache.demand_mshr_misses::total          883                       # number of demand (read+write) MSHR misses
system.cpu.icache.overall_mshr_misses::cpu.inst          883                       # number of overall MSHR misses
system.cpu.icache.overall_mshr_misses::total          883                       # number of overall MSHR misses
system.cpu.icache.ReadReq_mshr_miss_latency::cpu.inst     74721500                       # number of ReadReq MSHR miss cycles
system.cpu.icache.ReadReq_mshr_miss_latency::total     74721500                       # number of ReadReq MSHR miss cycles
system.cpu.icache.demand_mshr_miss_latency::cpu.inst     74721500                       # number of demand (read+write) MSHR miss cycles
system.cpu.icache.demand_mshr_miss_latency::total     74721500                       # number of demand (read+write) MSHR miss cycles
system.cpu.icache.overall_mshr_miss_latency::cpu.inst     74721500                       # number of overall MSHR miss cycles
system.cpu.icache.overall_mshr_miss_latency::total     74721500                       # number of overall MSHR miss cycles
system.cpu.icache.ReadReq_mshr_miss_rate::cpu.inst     0.000001                       # mshr miss rate for ReadReq accesses
system.cpu.icache.ReadReq_mshr_miss_rate::total     0.000001                       # mshr miss rate for ReadReq accesses
system.cpu.icache.demand_mshr_miss_rate::cpu.inst     0.000001                       # mshr miss rate for demand accesses
system.cpu.icache.demand_mshr_miss_rate::total     0.000001                       # mshr miss rate for demand accesses
system.cpu.icache.overall_mshr_miss_rate::cpu.inst     0.000001                       # mshr miss rate for overall accesses
system.cpu.icache.overall_mshr_miss_rate::total     0.000001                       # mshr miss rate for overall accesses
system.cpu.icache.ReadReq_avg_mshr_miss_latency::cpu.inst 84622.310306                       # average ReadReq mshr miss latency
system.cpu.icache.ReadReq_avg_mshr_miss_latency::total 84622.310306                       # average ReadReq mshr miss latency
system.cpu.icache.demand_avg_mshr_miss_latency::cpu.inst 84622.310306                       # average overall mshr miss latency
system.cpu.icache.demand_avg_mshr_miss_latency::total 84622.310306                       # average overall mshr miss latency
system.cpu.icache.overall_avg_mshr_miss_latency::cpu.inst 84622.310306                       # average overall mshr miss latency
system.cpu.icache.overall_avg_mshr_miss_latency::total 84622.310306                       # average overall mshr miss latency
system.cpu.itb_walker_cache.tags.pwrStateResidencyTicks::UNDEFINED 2129953547500                       # Cumulative time (in ticks) in various power states
system.cpu.itb_walker_cache.tags.replacements            0                       # number of replacements
system.cpu.itb_walker_cache.tags.tagsinuse            0                       # Cycle average of tags in use
system.cpu.itb_walker_cache.tags.total_refs            0                       # Total number of references to valid blocks.
system.cpu.itb_walker_cache.tags.sampled_refs            0                       # Sample count of references to valid blocks.
system.cpu.itb_walker_cache.tags.avg_refs          nan                       # Average number of references to valid blocks.
system.cpu.itb_walker_cache.tags.warmup_cycle            0                       # Cycle when the warmup percentage was hit.
system.cpu.itb_walker_cache.tags.tag_accesses            0                       # Number of tag accesses
system.cpu.itb_walker_cache.tags.data_accesses            0                       # Number of data accesses
system.cpu.itb_walker_cache.pwrStateResidencyTicks::UNDEFINED 2129953547500                       # Cumulative time (in ticks) in various power states
system.cpu.itb_walker_cache.blocked_cycles::no_mshrs            0                       # number of cycles access was blocked
system.cpu.itb_walker_cache.blocked_cycles::no_targets            0                       # number of cycles access was blocked
system.cpu.itb_walker_cache.blocked::no_mshrs            0                       # number of cycles access was blocked
system.cpu.itb_walker_cache.blocked::no_targets            0                       # number of cycles access was blocked
system.cpu.itb_walker_cache.avg_blocked_cycles::no_mshrs          nan                       # average number of cycles each access was blocked
system.cpu.itb_walker_cache.avg_blocked_cycles::no_targets          nan                       # average number of cycles each access was blocked
system.l2.tags.pwrStateResidencyTicks::UNDEFINED 2129953547500                       # Cumulative time (in ticks) in various power states
system.l2.tags.replacements                  13815758                       # number of replacements
system.l2.tags.tagsinuse                 32731.818649                       # Cycle average of tags in use
system.l2.tags.total_refs                    13905167                       # Total number of references to valid blocks.
system.l2.tags.sampled_refs                  13848526                       # Sample count of references to valid blocks.
system.l2.tags.avg_refs                      1.004090                       # Average number of references to valid blocks.
system.l2.tags.warmup_cycle                4857064000                       # Cycle when the warmup percentage was hit.
system.l2.tags.occ_blocks::writebacks        0.353366                       # Average occupied blocks per requestor
system.l2.tags.occ_blocks::cpu.inst          2.295136                       # Average occupied blocks per requestor
system.l2.tags.occ_blocks::cpu.data      32729.170147                       # Average occupied blocks per requestor
system.l2.tags.occ_percent::writebacks       0.000011                       # Average percentage of cache occupancy
system.l2.tags.occ_percent::cpu.inst         0.000070                       # Average percentage of cache occupancy
system.l2.tags.occ_percent::cpu.data         0.998815                       # Average percentage of cache occupancy
system.l2.tags.occ_percent::total            0.998896                       # Average percentage of cache occupancy
system.l2.tags.occ_task_id_blocks::1024         32768                       # Occupied blocks per task id
system.l2.tags.age_task_id_blocks_1024::2           45                       # Occupied blocks per task id
system.l2.tags.age_task_id_blocks_1024::3         6086                       # Occupied blocks per task id
system.l2.tags.age_task_id_blocks_1024::4        26637                       # Occupied blocks per task id
system.l2.tags.occ_task_id_percent::1024            1                       # Percentage of cache occupancy per task id
system.l2.tags.tag_accesses                 124863298                       # Number of tag accesses
system.l2.tags.data_accesses                124863298                       # Number of data accesses
system.l2.pwrStateResidencyTicks::UNDEFINED 2129953547500                       # Cumulative time (in ticks) in various power states
system.l2.WritebackDirty_hits::writebacks     13846157                       # number of WritebackDirty hits
system.l2.WritebackDirty_hits::total         13846157                       # number of WritebackDirty hits
system.l2.WritebackClean_hits::writebacks          133                       # number of WritebackClean hits
system.l2.WritebackClean_hits::total              133                       # number of WritebackClean hits
system.l2.ReadExReq_hits::cpu.data                235                       # number of ReadExReq hits
system.l2.ReadExReq_hits::total                   235                       # number of ReadExReq hits
system.l2.ReadCleanReq_hits::cpu.inst              14                       # number of ReadCleanReq hits
system.l2.ReadCleanReq_hits::total                 14                       # number of ReadCleanReq hits
system.l2.ReadSharedReq_hits::cpu.data          29508                       # number of ReadSharedReq hits
system.l2.ReadSharedReq_hits::total             29508                       # number of ReadSharedReq hits
system.l2.demand_hits::cpu.inst                    14                       # number of demand (read+write) hits
system.l2.demand_hits::cpu.data                 29743                       # number of demand (read+write) hits
system.l2.demand_hits::total                    29757                       # number of demand (read+write) hits
system.l2.overall_hits::cpu.inst                   14                       # number of overall hits
system.l2.overall_hits::cpu.data                29743                       # number of overall hits
system.l2.overall_hits::total                   29757                       # number of overall hits
system.l2.ReadExReq_misses::cpu.data         13400242                       # number of ReadExReq misses
system.l2.ReadExReq_misses::total            13400242                       # number of ReadExReq misses
system.l2.ReadCleanReq_misses::cpu.inst           869                       # number of ReadCleanReq misses
system.l2.ReadCleanReq_misses::total              869                       # number of ReadCleanReq misses
system.l2.ReadSharedReq_misses::cpu.data       447378                       # number of ReadSharedReq misses
system.l2.ReadSharedReq_misses::total          447378                       # number of ReadSharedReq misses
system.l2.demand_misses::cpu.inst                 869                       # number of demand (read+write) misses
system.l2.demand_misses::cpu.data            13847620                       # number of demand (read+write) misses
system.l2.demand_misses::total               13848489                       # number of demand (read+write) misses
system.l2.overall_misses::cpu.inst                869                       # number of overall misses
system.l2.overall_misses::cpu.data           13847620                       # number of overall misses
system.l2.overall_misses::total              13848489                       # number of overall misses
system.l2.ReadExReq_miss_latency::cpu.data 1113529235000                       # number of ReadExReq miss cycles
system.l2.ReadExReq_miss_latency::total  1113529235000                       # number of ReadExReq miss cycles
system.l2.ReadCleanReq_miss_latency::cpu.inst     73249000                       # number of ReadCleanReq miss cycles
system.l2.ReadCleanReq_miss_latency::total     73249000                       # number of ReadCleanReq miss cycles
system.l2.ReadSharedReq_miss_latency::cpu.data  38870607500                       # number of ReadSharedReq miss cycles
system.l2.ReadSharedReq_miss_latency::total  38870607500                       # number of ReadSharedReq miss cycles
system.l2.demand_miss_latency::cpu.inst      73249000                       # number of demand (read+write) miss cycles
system.l2.demand_miss_latency::cpu.data  1152399842500                       # number of demand (read+write) miss cycles
system.l2.demand_miss_latency::total     1152473091500                       # number of demand (read+write) miss cycles
system.l2.overall_miss_latency::cpu.inst     73249000                       # number of overall miss cycles
system.l2.overall_miss_latency::cpu.data 1152399842500                       # number of overall miss cycles
system.l2.overall_miss_latency::total    1152473091500                       # number of overall miss cycles
system.l2.WritebackDirty_accesses::writebacks     13846157                       # number of WritebackDirty accesses(hits+misses)
system.l2.WritebackDirty_accesses::total     13846157                       # number of WritebackDirty accesses(hits+misses)
system.l2.WritebackClean_accesses::writebacks          133                       # number of WritebackClean accesses(hits+misses)
system.l2.WritebackClean_accesses::total          133                       # number of WritebackClean accesses(hits+misses)
system.l2.ReadExReq_accesses::cpu.data       13400477                       # number of ReadExReq accesses(hits+misses)
system.l2.ReadExReq_accesses::total          13400477                       # number of ReadExReq accesses(hits+misses)
system.l2.ReadCleanReq_accesses::cpu.inst          883                       # number of ReadCleanReq accesses(hits+misses)
system.l2.ReadCleanReq_accesses::total            883                       # number of ReadCleanReq accesses(hits+misses)
system.l2.ReadSharedReq_accesses::cpu.data       476886                       # number of ReadSharedReq accesses(hits+misses)
system.l2.ReadSharedReq_accesses::total        476886                       # number of ReadSharedReq accesses(hits+misses)
system.l2.demand_accesses::cpu.inst               883                       # number of demand (read+write) accesses
system.l2.demand_accesses::cpu.data          13877363                       # number of demand (read+write) accesses
system.l2.demand_accesses::total             13878246                       # number of demand (read+write) accesses
system.l2.overall_accesses::cpu.inst              883                       # number of overall (read+write) accesses
system.l2.overall_accesses::cpu.data         13877363                       # number of overall (read+write) accesses
system.l2.overall_accesses::total            13878246                       # number of overall (read+write) accesses
system.l2.ReadExReq_miss_rate::cpu.data      0.999982                       # miss rate for ReadExReq accesses
system.l2.ReadExReq_miss_rate::total         0.999982                       # miss rate for ReadExReq accesses
system.l2.ReadCleanReq_miss_rate::cpu.inst     0.984145                       # miss rate for ReadCleanReq accesses
system.l2.ReadCleanReq_miss_rate::total      0.984145                       # miss rate for ReadCleanReq accesses
system.l2.ReadSharedReq_miss_rate::cpu.data     0.938124                       # miss rate for ReadSharedReq accesses
system.l2.ReadSharedReq_miss_rate::total     0.938124                       # miss rate for ReadSharedReq accesses
system.l2.demand_miss_rate::cpu.inst         0.984145                       # miss rate for demand accesses
system.l2.demand_miss_rate::cpu.data         0.997857                       # miss rate for demand accesses
system.l2.demand_miss_rate::total            0.997856                       # miss rate for demand accesses
system.l2.overall_miss_rate::cpu.inst        0.984145                       # miss rate for overall accesses
system.l2.overall_miss_rate::cpu.data        0.997857                       # miss rate for overall accesses
system.l2.overall_miss_rate::total           0.997856                       # miss rate for overall accesses
system.l2.ReadExReq_avg_miss_latency::cpu.data 83097.695922                       # average ReadExReq miss latency
system.l2.ReadExReq_avg_miss_latency::total 83097.695922                       # average ReadExReq miss latency
system.l2.ReadCleanReq_avg_miss_latency::cpu.inst 84291.139241                       # average ReadCleanReq miss latency
system.l2.ReadCleanReq_avg_miss_latency::total 84291.139241                       # average ReadCleanReq miss latency
system.l2.ReadSharedReq_avg_miss_latency::cpu.data 86885.379925                       # average ReadSharedReq miss latency
system.l2.ReadSharedReq_avg_miss_latency::total 86885.379925                       # average ReadSharedReq miss latency
system.l2.demand_avg_miss_latency::cpu.inst 84291.139241                       # average overall miss latency
system.l2.demand_avg_miss_latency::cpu.data 83220.065434                       # average overall miss latency
system.l2.demand_avg_miss_latency::total 83220.132644                       # average overall miss latency
system.l2.overall_avg_miss_latency::cpu.inst 84291.139241                       # average overall miss latency
system.l2.overall_avg_miss_latency::cpu.data 83220.065434                       # average overall miss latency
system.l2.overall_avg_miss_latency::total 83220.132644                       # average overall miss latency
system.l2.blocked_cycles::no_mshrs                  0                       # number of cycles access was blocked
system.l2.blocked_cycles::no_targets                0                       # number of cycles access was blocked
system.l2.blocked::no_mshrs                         0                       # number of cycles access was blocked
system.l2.blocked::no_targets                       0                       # number of cycles access was blocked
system.l2.avg_blocked_cycles::no_mshrs            nan                       # average number of cycles each access was blocked
system.l2.avg_blocked_cycles::no_targets          nan                       # average number of cycles each access was blocked
system.l2.writebacks::writebacks             13814729                       # number of writebacks
system.l2.writebacks::total                  13814729                       # number of writebacks
system.l2.ReadExReq_mshr_misses::cpu.data     13400242                       # number of ReadExReq MSHR misses
system.l2.ReadExReq_mshr_misses::total       13400242                       # number of ReadExReq MSHR misses
system.l2.ReadCleanReq_mshr_misses::cpu.inst          869                       # number of ReadCleanReq MSHR misses
system.l2.ReadCleanReq_mshr_misses::total          869                       # number of ReadCleanReq MSHR misses
system.l2.ReadSharedReq_mshr_misses::cpu.data       447378                       # number of ReadSharedReq MSHR misses
system.l2.ReadSharedReq_mshr_misses::total       447378                       # number of ReadSharedReq MSHR misses
system.l2.demand_mshr_misses::cpu.inst            869                       # number of demand (read+write) MSHR misses
system.l2.demand_mshr_misses::cpu.data       13847620                       # number of demand (read+write) MSHR misses
system.l2.demand_mshr_misses::total          13848489                       # number of demand (read+write) MSHR misses
system.l2.overall_mshr_misses::cpu.inst           869                       # number of overall MSHR misses
system.l2.overall_mshr_misses::cpu.data      13847620                       # number of overall MSHR misses
system.l2.overall_mshr_misses::total         13848489                       # number of overall MSHR misses
system.l2.ReadExReq_mshr_miss_latency::cpu.data 979526815000                       # number of ReadExReq MSHR miss cycles
system.l2.ReadExReq_mshr_miss_latency::total 979526815000                       # number of ReadExReq MSHR miss cycles
system.l2.ReadCleanReq_mshr_miss_latency::cpu.inst     64559000                       # number of ReadCleanReq MSHR miss cycles
system.l2.ReadCleanReq_mshr_miss_latency::total     64559000                       # number of ReadCleanReq MSHR miss cycles
system.l2.ReadSharedReq_mshr_miss_latency::cpu.data  34396827500                       # number of ReadSharedReq MSHR miss cycles
system.l2.ReadSharedReq_mshr_miss_latency::total  34396827500                       # number of ReadSharedReq MSHR miss cycles
system.l2.demand_mshr_miss_latency::cpu.inst     64559000                       # number of demand (read+write) MSHR miss cycles
system.l2.demand_mshr_miss_latency::cpu.data 1013923642500                       # number of demand (read+write) MSHR miss cycles
system.l2.demand_mshr_miss_latency::total 1013988201500                       # number of demand (read+write) MSHR miss cycles
system.l2.overall_mshr_miss_latency::cpu.inst     64559000                       # number of overall MSHR miss cycles
system.l2.overall_mshr_miss_latency::cpu.data 1013923642500                       # number of overall MSHR miss cycles
system.l2.overall_mshr_miss_latency::total 1013988201500                       # number of overall MSHR miss cycles
system.l2.ReadExReq_mshr_miss_rate::cpu.data     0.999982                       # mshr miss rate for ReadExReq accesses
system.l2.ReadExReq_mshr_miss_rate::total     0.999982                       # mshr miss rate for ReadExReq accesses
system.l2.ReadCleanReq_mshr_miss_rate::cpu.inst     0.984145                       # mshr miss rate for ReadCleanReq accesses
system.l2.ReadCleanReq_mshr_miss_rate::total     0.984145                       # mshr miss rate for ReadCleanReq accesses
system.l2.ReadSharedReq_mshr_miss_rate::cpu.data     0.938124                       # mshr miss rate for ReadSharedReq accesses
system.l2.ReadSharedReq_mshr_miss_rate::total     0.938124                       # mshr miss rate for ReadSharedReq accesses
system.l2.demand_mshr_miss_rate::cpu.inst     0.984145                       # mshr miss rate for demand accesses
system.l2.demand_mshr_miss_rate::cpu.data     0.997857                       # mshr miss rate for demand accesses
system.l2.demand_mshr_miss_rate::total       0.997856                       # mshr miss rate for demand accesses
system.l2.overall_mshr_miss_rate::cpu.inst     0.984145                       # mshr miss rate for overall accesses
system.l2.overall_mshr_miss_rate::cpu.data     0.997857                       # mshr miss rate for overall accesses
system.l2.overall_mshr_miss_rate::total      0.997856                       # mshr miss rate for overall accesses
system.l2.ReadExReq_avg_mshr_miss_latency::cpu.data 73097.695922                       # average ReadExReq mshr miss latency
system.l2.ReadExReq_avg_mshr_miss_latency::total 73097.695922                       # average ReadExReq mshr miss latency
system.l2.ReadCleanReq_avg_mshr_miss_latency::cpu.inst 74291.139241                       # average ReadCleanReq mshr miss latency
system.l2.ReadCleanReq_avg_mshr_miss_latency::total 74291.139241                       # average ReadCleanReq mshr miss latency
system.l2.ReadSharedReq_avg_mshr_miss_latency::cpu.data 76885.379925                       # average ReadSharedReq mshr miss latency
system.l2.ReadSharedReq_avg_mshr_miss_latency::total 76885.379925                       # average ReadSharedReq mshr miss latency
system.l2.demand_avg_mshr_miss_latency::cpu.inst 74291.139241                       # average overall mshr miss latency
system.l2.demand_avg_mshr_miss_latency::cpu.data 73220.065434                       # average overall mshr miss latency
system.l2.demand_avg_mshr_miss_latency::total 73220.132644                       # average overall mshr miss latency
system.l2.overall_avg_mshr_miss_latency::cpu.inst 74291.139241                       # average overall mshr miss latency
system.l2.overall_avg_mshr_miss_latency::cpu.data 73220.065434                       # average overall mshr miss latency
system.l2.overall_avg_mshr_miss_latency::total 73220.132644                       # average overall mshr miss latency
system.membus.snoop_filter.tot_requests      27663453                       # Total number of requests made to the snoop filter.
system.membus.snoop_filter.hit_single_requests     13814964                       # Number of requests hitting in the snoop filter with a single holder of the requested data.
system.membus.snoop_filter.hit_multi_requests            0                       # Number of requests hitting in the snoop filter with multiple (>1) holders of the requested data.
system.membus.snoop_filter.tot_snoops               0                       # Total number of snoops made to the snoop filter.
system.membus.snoop_filter.hit_single_snoops            0                       # Number of snoops hitting in the snoop filter with a single holder of the requested data.
system.membus.snoop_filter.hit_multi_snoops            0                       # Number of snoops hitting in the snoop filter with multiple (>1) holders of the requested data.
system.membus.pwrStateResidencyTicks::UNDEFINED 2129953547500                       # Cumulative time (in ticks) in various power states
system.membus.trans_dist::ReadResp             448247                       # Transaction distribution
system.membus.trans_dist::WritebackDirty     13814729                       # Transaction distribution
system.membus.trans_dist::CleanEvict              235                       # Transaction distribution
system.membus.trans_dist::ReadExReq          13400242                       # Transaction distribution
system.membus.trans_dist::ReadExResp         13400242                       # Transaction distribution
system.membus.trans_dist::ReadSharedReq        448247                       # Transaction distribution
system.membus.pkt_count_system.l2.mem_side::system.mem_ctrls.port     41511942                       # Packet count per connected master and slave (bytes)
system.membus.pkt_count_system.l2.mem_side::total     41511942                       # Packet count per connected master and slave (bytes)
system.membus.pkt_count::total               41511942                       # Packet count per connected master and slave (bytes)
system.membus.pkt_size_system.l2.mem_side::system.mem_ctrls.port    885222976                       # Cumulative packet size per connected master and slave (bytes)
system.membus.pkt_size_system.l2.mem_side::total    885222976                       # Cumulative packet size per connected master and slave (bytes)
system.membus.pkt_size::total               885222976                       # Cumulative packet size per connected master and slave (bytes)
system.membus.snoops                                0                       # Total snoops (count)
system.membus.snoopTraffic                          0                       # Total snoop traffic (bytes)
system.membus.snoop_fanout::samples          13848489                       # Request fanout histogram
system.membus.snoop_fanout::mean                    0                       # Request fanout histogram
system.membus.snoop_fanout::stdev                   0                       # Request fanout histogram
system.membus.snoop_fanout::underflows              0      0.00%      0.00% # Request fanout histogram
system.membus.snoop_fanout::0                13848489    100.00%    100.00% # Request fanout histogram
system.membus.snoop_fanout::1                       0      0.00%    100.00% # Request fanout histogram
system.membus.snoop_fanout::overflows               0      0.00%    100.00% # Request fanout histogram
system.membus.snoop_fanout::min_value               0                       # Request fanout histogram
system.membus.snoop_fanout::max_value               0                       # Request fanout histogram
system.membus.snoop_fanout::total            13848489                       # Request fanout histogram
system.membus.reqLayer2.occupancy         55292914000                       # Layer occupancy (ticks)
system.membus.reqLayer2.utilization               2.6                       # Layer utilization (%)
system.membus.respLayer1.occupancy        45209352750                       # Layer occupancy (ticks)
system.membus.respLayer1.utilization              2.1                       # Layer utilization (%)
system.tol2bus.snoop_filter.tot_requests     27753694                       # Total number of requests made to the snoop filter.
system.tol2bus.snoop_filter.hit_single_requests     13875448                       # Number of requests hitting in the snoop filter with a single holder of the requested data.
system.tol2bus.snoop_filter.hit_multi_requests            1                       # Number of requests hitting in the snoop filter with multiple (>1) holders of the requested data.
system.tol2bus.snoop_filter.tot_snoops            794                       # Total number of snoops made to the snoop filter.
system.tol2bus.snoop_filter.hit_single_snoops          794                       # Number of snoops hitting in the snoop filter with a single holder of the requested data.
system.tol2bus.snoop_filter.hit_multi_snoops            0                       # Number of snoops hitting in the snoop filter with multiple (>1) holders of the requested data.
system.tol2bus.pwrStateResidencyTicks::UNDEFINED 2129953547500                       # Cumulative time (in ticks) in various power states
system.tol2bus.trans_dist::ReadResp            477769                       # Transaction distribution
system.tol2bus.trans_dist::WritebackDirty     27660886                       # Transaction distribution
system.tol2bus.trans_dist::WritebackClean          133                       # Transaction distribution
system.tol2bus.trans_dist::CleanEvict           30187                       # Transaction distribution
system.tol2bus.trans_dist::ReadExReq         13400477                       # Transaction distribution
system.tol2bus.trans_dist::ReadExResp        13400477                       # Transaction distribution
system.tol2bus.trans_dist::ReadCleanReq           883                       # Transaction distribution
system.tol2bus.trans_dist::ReadSharedReq       476886                       # Transaction distribution
system.tol2bus.pkt_count_system.cpu.icache.mem_side::system.l2.cpu_side         1899                       # Packet count per connected master and slave (bytes)
system.tol2bus.pkt_count_system.cpu.dcache.mem_side::system.l2.cpu_side     41630041                       # Packet count per connected master and slave (bytes)
system.tol2bus.pkt_count::total              41631940                       # Packet count per connected master and slave (bytes)
system.tol2bus.pkt_size_system.cpu.icache.mem_side::system.l2.cpu_side        32512                       # Cumulative packet size per connected master and slave (bytes)
system.tol2bus.pkt_size_system.cpu.dcache.mem_side::system.l2.cpu_side    887152640                       # Cumulative packet size per connected master and slave (bytes)
system.tol2bus.pkt_size::total              887185152                       # Cumulative packet size per connected master and slave (bytes)
system.tol2bus.snoops                        13815758                       # Total snoops (count)
system.tol2bus.snoopTraffic                 442071328                       # Total snoop traffic (bytes)
system.tol2bus.snoop_fanout::samples         27694004                       # Request fanout histogram
system.tol2bus.snoop_fanout::mean            0.000029                       # Request fanout histogram
system.tol2bus.snoop_fanout::stdev           0.005358                       # Request fanout histogram
system.tol2bus.snoop_fanout::underflows             0      0.00%      0.00% # Request fanout histogram
system.tol2bus.snoop_fanout::0               27693209    100.00%    100.00% # Request fanout histogram
system.tol2bus.snoop_fanout::1                    795      0.00%    100.00% # Request fanout histogram
system.tol2bus.snoop_fanout::2                      0      0.00%    100.00% # Request fanout histogram
system.tol2bus.snoop_fanout::3                      0      0.00%    100.00% # Request fanout histogram
system.tol2bus.snoop_fanout::4                      0      0.00%    100.00% # Request fanout histogram
system.tol2bus.snoop_fanout::overflows              0      0.00%    100.00% # Request fanout histogram
system.tol2bus.snoop_fanout::min_value              0                       # Request fanout histogram
system.tol2bus.snoop_fanout::max_value              1                       # Request fanout histogram
system.tol2bus.snoop_fanout::total           27694004                       # Request fanout histogram
system.tol2bus.reqLayer0.occupancy        20799992000                       # Layer occupancy (ticks)
system.tol2bus.reqLayer0.utilization              1.0                       # Layer utilization (%)
system.tol2bus.respLayer0.occupancy            883000                       # Layer occupancy (ticks)
system.tol2bus.respLayer0.utilization             0.0                       # Layer utilization (%)
system.tol2bus.respLayer1.occupancy       13877363000                       # Layer occupancy (ticks)
system.tol2bus.respLayer1.utilization             0.7                       # Layer utilization (%)

---------- End Simulation Statistics   ----------
