
---------- Begin Simulation Statistics ----------
sim_seconds                                  2.107235                       # Number of seconds simulated
sim_ticks                                2107234630500                       # Number of ticks simulated
final_tick                               2107234630500                       # Number of ticks from beginning of simulation (restored from checkpoints and never reset)
sim_freq                                 1000000000000                       # Frequency of simulated ticks
host_inst_rate                                 283671                       # Simulator instruction rate (inst/s)
host_op_rate                                   497169                       # Simulator op (including micro ops) rate (op/s)
host_tick_rate                             1195521591                       # Simulator tick rate (ticks/s)
host_mem_usage                                 657056                       # Number of bytes of host memory used
host_seconds                                  1762.61                       # Real time elapsed on the host
sim_insts                                   500000000                       # Number of instructions simulated
sim_ops                                     876313784                       # Number of ops (including micro ops) simulated
system.voltage_domain.voltage                       1                       # Voltage in Volts
system.clk_domain.clock                          1000                       # Clock period in ticks
system.mem_ctrls.pwrStateResidencyTicks::UNDEFINED 2107234630500                       # Cumulative time (in ticks) in various power states
system.mem_ctrls.bytes_read::cpu.inst           53152                       # Number of bytes read from this memory
system.mem_ctrls.bytes_read::cpu.data       337486208                       # Number of bytes read from this memory
system.mem_ctrls.bytes_read::total          337539360                       # Number of bytes read from this memory
system.mem_ctrls.bytes_inst_read::cpu.inst        53152                       # Number of instructions bytes read from this memory
system.mem_ctrls.bytes_inst_read::total         53152                       # Number of instructions bytes read from this memory
system.mem_ctrls.bytes_written::writebacks     42243136                       # Number of bytes written to this memory
system.mem_ctrls.bytes_written::total        42243136                       # Number of bytes written to this memory
system.mem_ctrls.num_reads::cpu.inst             1661                       # Number of read requests responded to by this memory
system.mem_ctrls.num_reads::cpu.data         10546444                       # Number of read requests responded to by this memory
system.mem_ctrls.num_reads::total            10548105                       # Number of read requests responded to by this memory
system.mem_ctrls.num_writes::writebacks       1320098                       # Number of write requests responded to by this memory
system.mem_ctrls.num_writes::total            1320098                       # Number of write requests responded to by this memory
system.mem_ctrls.bw_read::cpu.inst              25224                       # Total read bandwidth from this memory (bytes/s)
system.mem_ctrls.bw_read::cpu.data          160155971                       # Total read bandwidth from this memory (bytes/s)
system.mem_ctrls.bw_read::total             160181194                       # Total read bandwidth from this memory (bytes/s)
system.mem_ctrls.bw_inst_read::cpu.inst         25224                       # Instruction read bandwidth from this memory (bytes/s)
system.mem_ctrls.bw_inst_read::total            25224                       # Instruction read bandwidth from this memory (bytes/s)
system.mem_ctrls.bw_write::writebacks        20046717                       # Write bandwidth from this memory (bytes/s)
system.mem_ctrls.bw_write::total             20046717                       # Write bandwidth from this memory (bytes/s)
system.mem_ctrls.bw_total::writebacks        20046717                       # Total bandwidth to/from this memory (bytes/s)
system.mem_ctrls.bw_total::cpu.inst             25224                       # Total bandwidth to/from this memory (bytes/s)
system.mem_ctrls.bw_total::cpu.data         160155971                       # Total bandwidth to/from this memory (bytes/s)
system.mem_ctrls.bw_total::total            180227911                       # Total bandwidth to/from this memory (bytes/s)
system.mem_ctrls.readReqs                    10548105                       # Number of read requests accepted
system.mem_ctrls.writeReqs                    1320098                       # Number of write requests accepted
system.mem_ctrls.readBursts                  10548105                       # Number of DRAM read bursts, including those serviced by the write queue
system.mem_ctrls.writeBursts                  1320098                       # Number of DRAM write bursts, including those merged in the write queue
system.mem_ctrls.bytesReadDRAM              673634176                       # Total number of bytes read from DRAM
system.mem_ctrls.bytesReadWrQ                 1444544                       # Total number of bytes read from write queue
system.mem_ctrls.bytesWritten                76612800                       # Total number of bytes written to DRAM
system.mem_ctrls.bytesReadSys               337539360                       # Total read bytes from the system interface side
system.mem_ctrls.bytesWrittenSys             42243136                       # Total written bytes from the system interface side
system.mem_ctrls.servicedByWrQ                  22571                       # Number of DRAM read bursts serviced by the write queue
system.mem_ctrls.mergedWrBursts                122997                       # Number of DRAM write bursts merged with an existing one
system.mem_ctrls.neitherReadNorWriteReqs            0                       # Number of requests that are neither read nor write
system.mem_ctrls.perBankRdBursts::0            672215                       # Per bank write bursts
system.mem_ctrls.perBankRdBursts::1            650851                       # Per bank write bursts
system.mem_ctrls.perBankRdBursts::2            652694                       # Per bank write bursts
system.mem_ctrls.perBankRdBursts::3            692083                       # Per bank write bursts
system.mem_ctrls.perBankRdBursts::4            647010                       # Per bank write bursts
system.mem_ctrls.perBankRdBursts::5            644574                       # Per bank write bursts
system.mem_ctrls.perBankRdBursts::6            665809                       # Per bank write bursts
system.mem_ctrls.perBankRdBursts::7            641090                       # Per bank write bursts
system.mem_ctrls.perBankRdBursts::8            646600                       # Per bank write bursts
system.mem_ctrls.perBankRdBursts::9            645995                       # Per bank write bursts
system.mem_ctrls.perBankRdBursts::10           649190                       # Per bank write bursts
system.mem_ctrls.perBankRdBursts::11           655164                       # Per bank write bursts
system.mem_ctrls.perBankRdBursts::12           666071                       # Per bank write bursts
system.mem_ctrls.perBankRdBursts::13           669887                       # Per bank write bursts
system.mem_ctrls.perBankRdBursts::14           660512                       # Per bank write bursts
system.mem_ctrls.perBankRdBursts::15           665789                       # Per bank write bursts
system.mem_ctrls.perBankWrBursts::0             75696                       # Per bank write bursts
system.mem_ctrls.perBankWrBursts::1             75016                       # Per bank write bursts
system.mem_ctrls.perBankWrBursts::2             74885                       # Per bank write bursts
system.mem_ctrls.perBankWrBursts::3             91980                       # Per bank write bursts
system.mem_ctrls.perBankWrBursts::4             75921                       # Per bank write bursts
system.mem_ctrls.perBankWrBursts::5             70303                       # Per bank write bursts
system.mem_ctrls.perBankWrBursts::6             78129                       # Per bank write bursts
system.mem_ctrls.perBankWrBursts::7             69800                       # Per bank write bursts
system.mem_ctrls.perBankWrBursts::8             70605                       # Per bank write bursts
system.mem_ctrls.perBankWrBursts::9             69520                       # Per bank write bursts
system.mem_ctrls.perBankWrBursts::10            70053                       # Per bank write bursts
system.mem_ctrls.perBankWrBursts::11            73416                       # Per bank write bursts
system.mem_ctrls.perBankWrBursts::12            75469                       # Per bank write bursts
system.mem_ctrls.perBankWrBursts::13            75888                       # Per bank write bursts
system.mem_ctrls.perBankWrBursts::14            75077                       # Per bank write bursts
system.mem_ctrls.perBankWrBursts::15            75317                       # Per bank write bursts
system.mem_ctrls.numRdRetry                         0                       # Number of times read queue was full causing retry
system.mem_ctrls.numWrRetry                         0                       # Number of times write queue was full causing retry
system.mem_ctrls.totGap                  2107233725500                       # Total gap between requests
system.mem_ctrls.readPktSize::0                     0                       # Read request sizes (log2)
system.mem_ctrls.readPktSize::1                     0                       # Read request sizes (log2)
system.mem_ctrls.readPktSize::2                     0                       # Read request sizes (log2)
system.mem_ctrls.readPktSize::3                     0                       # Read request sizes (log2)
system.mem_ctrls.readPktSize::4                     0                       # Read request sizes (log2)
system.mem_ctrls.readPktSize::5              10548105                       # Read request sizes (log2)
system.mem_ctrls.readPktSize::6                     0                       # Read request sizes (log2)
system.mem_ctrls.writePktSize::0                    0                       # Write request sizes (log2)
system.mem_ctrls.writePktSize::1                    0                       # Write request sizes (log2)
system.mem_ctrls.writePktSize::2                    0                       # Write request sizes (log2)
system.mem_ctrls.writePktSize::3                    0                       # Write request sizes (log2)
system.mem_ctrls.writePktSize::4                    0                       # Write request sizes (log2)
system.mem_ctrls.writePktSize::5              1320098                       # Write request sizes (log2)
system.mem_ctrls.writePktSize::6                    0                       # Write request sizes (log2)
system.mem_ctrls.rdQLenPdf::0                10525534                       # What read queue length does an incoming req see
system.mem_ctrls.rdQLenPdf::1                       0                       # What read queue length does an incoming req see
system.mem_ctrls.rdQLenPdf::2                       0                       # What read queue length does an incoming req see
system.mem_ctrls.rdQLenPdf::3                       0                       # What read queue length does an incoming req see
system.mem_ctrls.rdQLenPdf::4                       0                       # What read queue length does an incoming req see
system.mem_ctrls.rdQLenPdf::5                       0                       # What read queue length does an incoming req see
system.mem_ctrls.rdQLenPdf::6                       0                       # What read queue length does an incoming req see
system.mem_ctrls.rdQLenPdf::7                       0                       # What read queue length does an incoming req see
system.mem_ctrls.rdQLenPdf::8                       0                       # What read queue length does an incoming req see
system.mem_ctrls.rdQLenPdf::9                       0                       # What read queue length does an incoming req see
system.mem_ctrls.rdQLenPdf::10                      0                       # What read queue length does an incoming req see
system.mem_ctrls.rdQLenPdf::11                      0                       # What read queue length does an incoming req see
system.mem_ctrls.rdQLenPdf::12                      0                       # What read queue length does an incoming req see
system.mem_ctrls.rdQLenPdf::13                      0                       # What read queue length does an incoming req see
system.mem_ctrls.rdQLenPdf::14                      0                       # What read queue length does an incoming req see
system.mem_ctrls.rdQLenPdf::15                      0                       # What read queue length does an incoming req see
system.mem_ctrls.rdQLenPdf::16                      0                       # What read queue length does an incoming req see
system.mem_ctrls.rdQLenPdf::17                      0                       # What read queue length does an incoming req see
system.mem_ctrls.rdQLenPdf::18                      0                       # What read queue length does an incoming req see
system.mem_ctrls.rdQLenPdf::19                      0                       # What read queue length does an incoming req see
system.mem_ctrls.rdQLenPdf::20                      0                       # What read queue length does an incoming req see
system.mem_ctrls.rdQLenPdf::21                      0                       # What read queue length does an incoming req see
system.mem_ctrls.rdQLenPdf::22                      0                       # What read queue length does an incoming req see
system.mem_ctrls.rdQLenPdf::23                      0                       # What read queue length does an incoming req see
system.mem_ctrls.rdQLenPdf::24                      0                       # What read queue length does an incoming req see
system.mem_ctrls.rdQLenPdf::25                      0                       # What read queue length does an incoming req see
system.mem_ctrls.rdQLenPdf::26                      0                       # What read queue length does an incoming req see
system.mem_ctrls.rdQLenPdf::27                      0                       # What read queue length does an incoming req see
system.mem_ctrls.rdQLenPdf::28                      0                       # What read queue length does an incoming req see
system.mem_ctrls.rdQLenPdf::29                      0                       # What read queue length does an incoming req see
system.mem_ctrls.rdQLenPdf::30                      0                       # What read queue length does an incoming req see
system.mem_ctrls.rdQLenPdf::31                      0                       # What read queue length does an incoming req see
system.mem_ctrls.wrQLenPdf::0                       1                       # What write queue length does an incoming req see
system.mem_ctrls.wrQLenPdf::1                       1                       # What write queue length does an incoming req see
system.mem_ctrls.wrQLenPdf::2                       1                       # What write queue length does an incoming req see
system.mem_ctrls.wrQLenPdf::3                       1                       # What write queue length does an incoming req see
system.mem_ctrls.wrQLenPdf::4                       1                       # What write queue length does an incoming req see
system.mem_ctrls.wrQLenPdf::5                       1                       # What write queue length does an incoming req see
system.mem_ctrls.wrQLenPdf::6                       1                       # What write queue length does an incoming req see
system.mem_ctrls.wrQLenPdf::7                       1                       # What write queue length does an incoming req see
system.mem_ctrls.wrQLenPdf::8                       1                       # What write queue length does an incoming req see
system.mem_ctrls.wrQLenPdf::9                       1                       # What write queue length does an incoming req see
system.mem_ctrls.wrQLenPdf::10                      1                       # What write queue length does an incoming req see
system.mem_ctrls.wrQLenPdf::11                      1                       # What write queue length does an incoming req see
system.mem_ctrls.wrQLenPdf::12                      1                       # What write queue length does an incoming req see
system.mem_ctrls.wrQLenPdf::13                      1                       # What write queue length does an incoming req see
system.mem_ctrls.wrQLenPdf::14                      1                       # What write queue length does an incoming req see
system.mem_ctrls.wrQLenPdf::15                  16933                       # What write queue length does an incoming req see
system.mem_ctrls.wrQLenPdf::16                  18128                       # What write queue length does an incoming req see
system.mem_ctrls.wrQLenPdf::17                  72535                       # What write queue length does an incoming req see
system.mem_ctrls.wrQLenPdf::18                  72624                       # What write queue length does an incoming req see
system.mem_ctrls.wrQLenPdf::19                  72626                       # What write queue length does an incoming req see
system.mem_ctrls.wrQLenPdf::20                  72627                       # What write queue length does an incoming req see
system.mem_ctrls.wrQLenPdf::21                  72626                       # What write queue length does an incoming req see
system.mem_ctrls.wrQLenPdf::22                  72625                       # What write queue length does an incoming req see
system.mem_ctrls.wrQLenPdf::23                  72626                       # What write queue length does an incoming req see
system.mem_ctrls.wrQLenPdf::24                  72626                       # What write queue length does an incoming req see
system.mem_ctrls.wrQLenPdf::25                  72629                       # What write queue length does an incoming req see
system.mem_ctrls.wrQLenPdf::26                  72639                       # What write queue length does an incoming req see
system.mem_ctrls.wrQLenPdf::27                  72631                       # What write queue length does an incoming req see
system.mem_ctrls.wrQLenPdf::28                  72638                       # What write queue length does an incoming req see
system.mem_ctrls.wrQLenPdf::29                  72679                       # What write queue length does an incoming req see
system.mem_ctrls.wrQLenPdf::30                  72640                       # What write queue length does an incoming req see
system.mem_ctrls.wrQLenPdf::31                  72631                       # What write queue length does an incoming req see
system.mem_ctrls.wrQLenPdf::32                  72623                       # What write queue length does an incoming req see
system.mem_ctrls.wrQLenPdf::33                      0                       # What write queue length does an incoming req see
system.mem_ctrls.wrQLenPdf::34                      0                       # What write queue length does an incoming req see
system.mem_ctrls.wrQLenPdf::35                      0                       # What write queue length does an incoming req see
system.mem_ctrls.wrQLenPdf::36                      0                       # What write queue length does an incoming req see
system.mem_ctrls.wrQLenPdf::37                      0                       # What write queue length does an incoming req see
system.mem_ctrls.wrQLenPdf::38                      0                       # What write queue length does an incoming req see
system.mem_ctrls.wrQLenPdf::39                      0                       # What write queue length does an incoming req see
system.mem_ctrls.wrQLenPdf::40                      0                       # What write queue length does an incoming req see
system.mem_ctrls.wrQLenPdf::41                      0                       # What write queue length does an incoming req see
system.mem_ctrls.wrQLenPdf::42                      0                       # What write queue length does an incoming req see
system.mem_ctrls.wrQLenPdf::43                      0                       # What write queue length does an incoming req see
system.mem_ctrls.wrQLenPdf::44                      0                       # What write queue length does an incoming req see
system.mem_ctrls.wrQLenPdf::45                      0                       # What write queue length does an incoming req see
system.mem_ctrls.wrQLenPdf::46                      0                       # What write queue length does an incoming req see
system.mem_ctrls.wrQLenPdf::47                      0                       # What write queue length does an incoming req see
system.mem_ctrls.wrQLenPdf::48                      0                       # What write queue length does an incoming req see
system.mem_ctrls.wrQLenPdf::49                      0                       # What write queue length does an incoming req see
system.mem_ctrls.wrQLenPdf::50                      0                       # What write queue length does an incoming req see
system.mem_ctrls.wrQLenPdf::51                      0                       # What write queue length does an incoming req see
system.mem_ctrls.wrQLenPdf::52                      0                       # What write queue length does an incoming req see
system.mem_ctrls.wrQLenPdf::53                      0                       # What write queue length does an incoming req see
system.mem_ctrls.wrQLenPdf::54                      0                       # What write queue length does an incoming req see
system.mem_ctrls.wrQLenPdf::55                      0                       # What write queue length does an incoming req see
system.mem_ctrls.wrQLenPdf::56                      0                       # What write queue length does an incoming req see
system.mem_ctrls.wrQLenPdf::57                      0                       # What write queue length does an incoming req see
system.mem_ctrls.wrQLenPdf::58                      0                       # What write queue length does an incoming req see
system.mem_ctrls.wrQLenPdf::59                      0                       # What write queue length does an incoming req see
system.mem_ctrls.wrQLenPdf::60                      0                       # What write queue length does an incoming req see
system.mem_ctrls.wrQLenPdf::61                      0                       # What write queue length does an incoming req see
system.mem_ctrls.wrQLenPdf::62                      0                       # What write queue length does an incoming req see
system.mem_ctrls.wrQLenPdf::63                      0                       # What write queue length does an incoming req see
system.mem_ctrls.bytesPerActivate::samples      6076796                       # Bytes accessed per row activation
system.mem_ctrls.bytesPerActivate::mean    123.460934                       # Bytes accessed per row activation
system.mem_ctrls.bytesPerActivate::gmean   105.049370                       # Bytes accessed per row activation
system.mem_ctrls.bytesPerActivate::stdev   119.650927                       # Bytes accessed per row activation
system.mem_ctrls.bytesPerActivate::0-127      2258895     37.17%     37.17% # Bytes accessed per row activation
system.mem_ctrls.bytesPerActivate::128-255      3587215     59.03%     96.20% # Bytes accessed per row activation
system.mem_ctrls.bytesPerActivate::256-383        90721      1.49%     97.70% # Bytes accessed per row activation
system.mem_ctrls.bytesPerActivate::384-511        24111      0.40%     98.09% # Bytes accessed per row activation
system.mem_ctrls.bytesPerActivate::512-639        13044      0.21%     98.31% # Bytes accessed per row activation
system.mem_ctrls.bytesPerActivate::640-767        11518      0.19%     98.50% # Bytes accessed per row activation
system.mem_ctrls.bytesPerActivate::768-895        10766      0.18%     98.67% # Bytes accessed per row activation
system.mem_ctrls.bytesPerActivate::896-1023         9386      0.15%     98.83% # Bytes accessed per row activation
system.mem_ctrls.bytesPerActivate::1024-1151        71140      1.17%    100.00% # Bytes accessed per row activation
system.mem_ctrls.bytesPerActivate::total      6076796                       # Bytes accessed per row activation
system.mem_ctrls.rdPerTurnAround::samples        72623                       # Reads before turning the bus around for writes
system.mem_ctrls.rdPerTurnAround::mean     144.933244                       # Reads before turning the bus around for writes
system.mem_ctrls.rdPerTurnAround::gmean     76.840913                       # Reads before turning the bus around for writes
system.mem_ctrls.rdPerTurnAround::stdev    213.575692                       # Reads before turning the bus around for writes
system.mem_ctrls.rdPerTurnAround::0-255         60525     83.34%     83.34% # Reads before turning the bus around for writes
system.mem_ctrls.rdPerTurnAround::256-511         6348      8.74%     92.08% # Reads before turning the bus around for writes
system.mem_ctrls.rdPerTurnAround::512-767         5117      7.05%     99.13% # Reads before turning the bus around for writes
system.mem_ctrls.rdPerTurnAround::768-1023          243      0.33%     99.46% # Reads before turning the bus around for writes
system.mem_ctrls.rdPerTurnAround::1024-1279          149      0.21%     99.67% # Reads before turning the bus around for writes
system.mem_ctrls.rdPerTurnAround::1280-1535           90      0.12%     99.79% # Reads before turning the bus around for writes
system.mem_ctrls.rdPerTurnAround::1536-1791           61      0.08%     99.88% # Reads before turning the bus around for writes
system.mem_ctrls.rdPerTurnAround::1792-2047           27      0.04%     99.91% # Reads before turning the bus around for writes
system.mem_ctrls.rdPerTurnAround::2048-2303           15      0.02%     99.93% # Reads before turning the bus around for writes
system.mem_ctrls.rdPerTurnAround::2304-2559           15      0.02%     99.95% # Reads before turning the bus around for writes
system.mem_ctrls.rdPerTurnAround::2560-2815            6      0.01%     99.96% # Reads before turning the bus around for writes
system.mem_ctrls.rdPerTurnAround::2816-3071            6      0.01%     99.97% # Reads before turning the bus around for writes
system.mem_ctrls.rdPerTurnAround::3072-3327            6      0.01%     99.98% # Reads before turning the bus around for writes
system.mem_ctrls.rdPerTurnAround::3584-3839            3      0.00%     99.98% # Reads before turning the bus around for writes
system.mem_ctrls.rdPerTurnAround::3840-4095            2      0.00%     99.99% # Reads before turning the bus around for writes
system.mem_ctrls.rdPerTurnAround::4096-4351            1      0.00%     99.99% # Reads before turning the bus around for writes
system.mem_ctrls.rdPerTurnAround::4352-4607            1      0.00%     99.99% # Reads before turning the bus around for writes
system.mem_ctrls.rdPerTurnAround::4864-5119            1      0.00%     99.99% # Reads before turning the bus around for writes
system.mem_ctrls.rdPerTurnAround::5120-5375            1      0.00%     99.99% # Reads before turning the bus around for writes
system.mem_ctrls.rdPerTurnAround::5632-5887            2      0.00%     99.99% # Reads before turning the bus around for writes
system.mem_ctrls.rdPerTurnAround::5888-6143            1      0.00%    100.00% # Reads before turning the bus around for writes
system.mem_ctrls.rdPerTurnAround::6144-6399            1      0.00%    100.00% # Reads before turning the bus around for writes
system.mem_ctrls.rdPerTurnAround::6656-6911            1      0.00%    100.00% # Reads before turning the bus around for writes
system.mem_ctrls.rdPerTurnAround::7680-7935            1      0.00%    100.00% # Reads before turning the bus around for writes
system.mem_ctrls.rdPerTurnAround::total         72623                       # Reads before turning the bus around for writes
system.mem_ctrls.wrPerTurnAround::samples        72623                       # Writes before turning the bus around for reads
system.mem_ctrls.wrPerTurnAround::mean      16.483414                       # Writes before turning the bus around for reads
system.mem_ctrls.wrPerTurnAround::gmean     16.462467                       # Writes before turning the bus around for reads
system.mem_ctrls.wrPerTurnAround::stdev      0.847748                       # Writes before turning the bus around for reads
system.mem_ctrls.wrPerTurnAround::16            54495     75.04%     75.04% # Writes before turning the bus around for reads
system.mem_ctrls.wrPerTurnAround::17             1196      1.65%     76.69% # Writes before turning the bus around for reads
system.mem_ctrls.wrPerTurnAround::18            16887     23.25%     99.94% # Writes before turning the bus around for reads
system.mem_ctrls.wrPerTurnAround::19               43      0.06%    100.00% # Writes before turning the bus around for reads
system.mem_ctrls.wrPerTurnAround::20                2      0.00%    100.00% # Writes before turning the bus around for reads
system.mem_ctrls.wrPerTurnAround::total         72623                       # Writes before turning the bus around for reads
system.mem_ctrls.totQLat                 243100857500                       # Total ticks spent queuing
system.mem_ctrls.totMemAccLat            440454620000                       # Total ticks spent from burst creation until serviced by the DRAM
system.mem_ctrls.totBusLat                52627670000                       # Total ticks spent in databus transfers
system.mem_ctrls.avgQLat                     23096.30                       # Average queueing delay per DRAM burst
system.mem_ctrls.avgBusLat                    5000.00                       # Average bus latency per DRAM burst
system.mem_ctrls.avgMemAccLat                41846.30                       # Average memory access latency per DRAM burst
system.mem_ctrls.avgRdBW                       319.68                       # Average DRAM read bandwidth in MiByte/s
system.mem_ctrls.avgWrBW                        36.36                       # Average achieved write bandwidth in MiByte/s
system.mem_ctrls.avgRdBWSys                    160.18                       # Average system read bandwidth in MiByte/s
system.mem_ctrls.avgWrBWSys                     20.05                       # Average system write bandwidth in MiByte/s
system.mem_ctrls.peakBW                      12800.00                       # Theoretical peak bandwidth in MiByte/s
system.mem_ctrls.busUtil                         2.78                       # Data bus utilization in percentage
system.mem_ctrls.busUtilRead                     2.50                       # Data bus utilization in percentage for reads
system.mem_ctrls.busUtilWrite                    0.28                       # Data bus utilization in percentage for writes
system.mem_ctrls.avgRdQLen                       1.00                       # Average read queue length when enqueuing
system.mem_ctrls.avgWrQLen                      25.21                       # Average write queue length when enqueuing
system.mem_ctrls.readRowHits                  5137024                       # Number of row buffer hits during reads
system.mem_ctrls.writeRowHits                  508788                       # Number of row buffer hits during writes
system.mem_ctrls.readRowHitRate                 48.81                       # Row buffer hit rate for reads
system.mem_ctrls.writeRowHitRate                42.50                       # Row buffer hit rate for writes
system.mem_ctrls.avgGap                     177552.89                       # Average gap between requests
system.mem_ctrls.pageHitRate                    48.16                       # Row buffer hit rate, read and write combined
system.mem_ctrls_0.actEnergy              21753645060                       # Energy for activate commands per rank (pJ)
system.mem_ctrls_0.preEnergy              11562332760                       # Energy for precharge commands per rank (pJ)
system.mem_ctrls_0.readEnergy             37601567640                       # Energy for read commands per rank (pJ)
system.mem_ctrls_0.writeEnergy             3193230600                       # Energy for write commands per rank (pJ)
system.mem_ctrls_0.refreshEnergy         159110012880.000031                       # Energy for refresh commands per rank (pJ)
system.mem_ctrls_0.actBackEnergy         131136509640                       # Energy for active background per rank (pJ)
system.mem_ctrls_0.preBackEnergy           4956113280                       # Energy for precharge background per rank (pJ)
system.mem_ctrls_0.actPowerDownEnergy    631716711810                       # Energy for active power-down per rank (pJ)
system.mem_ctrls_0.prePowerDownEnergy     85912874400                       # Energy for precharge power-down per rank (pJ)
system.mem_ctrls_0.selfRefreshEnergy      55523630535                       # Energy for self refresh per rank (pJ)
system.mem_ctrls_0.totalEnergy           1142486113575                       # Total energy per rank (pJ)
system.mem_ctrls_0.averagePower            542.173185                       # Core power per rank (mW)
system.mem_ctrls_0.totalIdleTime         1806704583750                       # Total Idle time Per DRAM Rank
system.mem_ctrls_0.memoryStateTime::IDLE   5476829750                       # Time in different power states
system.mem_ctrls_0.memoryStateTime::REF   67396944000                       # Time in different power states
system.mem_ctrls_0.memoryStateTime::SREF 197629483250                       # Time in different power states
system.mem_ctrls_0.memoryStateTime::PRE_PDN 223731853750                       # Time in different power states
system.mem_ctrls_0.memoryStateTime::ACT  227655942000                       # Time in different power states
system.mem_ctrls_0.memoryStateTime::ACT_PDN 1385343577750                       # Time in different power states
system.mem_ctrls_1.actEnergy              21634685520                       # Energy for activate commands per rank (pJ)
system.mem_ctrls_1.preEnergy              11499108060                       # Energy for precharge commands per rank (pJ)
system.mem_ctrls_1.readEnergy             37550745120                       # Energy for read commands per rank (pJ)
system.mem_ctrls_1.writeEnergy             3055500900                       # Energy for write commands per rank (pJ)
system.mem_ctrls_1.refreshEnergy         159376766640.000031                       # Energy for refresh commands per rank (pJ)
system.mem_ctrls_1.actBackEnergy         131289153360                       # Energy for active background per rank (pJ)
system.mem_ctrls_1.preBackEnergy           5241618720                       # Energy for precharge background per rank (pJ)
system.mem_ctrls_1.actPowerDownEnergy    625260870150                       # Energy for active power-down per rank (pJ)
system.mem_ctrls_1.prePowerDownEnergy     86789676960                       # Energy for precharge power-down per rank (pJ)
system.mem_ctrls_1.selfRefreshEnergy      59193322215                       # Energy for self refresh per rank (pJ)
system.mem_ctrls_1.totalEnergy           1140907983285                       # Total energy per rank (pJ)
system.mem_ctrls_1.averagePower            541.424275                       # Core power per rank (mW)
system.mem_ctrls_1.totalIdleTime         1805626392000                       # Total Idle time Per DRAM Rank
system.mem_ctrls_1.memoryStateTime::IDLE   5890203250                       # Time in different power states
system.mem_ctrls_1.memoryStateTime::REF   67520974000                       # Time in different power states
system.mem_ctrls_1.memoryStateTime::SREF 208432097250                       # Time in different power states
system.mem_ctrls_1.memoryStateTime::PRE_PDN 226013947250                       # Time in different power states
system.mem_ctrls_1.memoryStateTime::ACT  228191028250                       # Time in different power states
system.mem_ctrls_1.memoryStateTime::ACT_PDN 1371186380500                       # Time in different power states
system.pwrStateResidencyTicks::UNDEFINED 2107234630500                       # Cumulative time (in ticks) in various power states
system.cpu_voltage_domain.voltage                   1                       # Voltage in Volts
system.cpu_clk_domain.clock                       500                       # Clock period in ticks
system.cpu.dtb.walker.pwrStateResidencyTicks::UNDEFINED 2107234630500                       # Cumulative time (in ticks) in various power states
system.cpu.apic_clk_domain.clock                 8000                       # Clock period in ticks
system.cpu.interrupts.pwrStateResidencyTicks::UNDEFINED 2107234630500                       # Cumulative time (in ticks) in various power states
system.cpu.itb.walker.pwrStateResidencyTicks::UNDEFINED 2107234630500                       # Cumulative time (in ticks) in various power states
system.cpu.workload.num_syscalls                  168                       # Number of system calls
system.cpu.pwrStateResidencyTicks::ON    2107234630500                       # Cumulative time (in ticks) in various power states
system.cpu.numCycles                       4214469261                       # number of cpu cycles simulated
system.cpu.numWorkItemsStarted                      0                       # number of work items this cpu started
system.cpu.numWorkItemsCompleted                    0                       # number of work items this cpu completed
system.cpu.committedInsts                   500000000                       # Number of instructions committed
system.cpu.committedOps                     876313784                       # Number of ops (including micro ops) committed
system.cpu.num_int_alu_accesses             872966681                       # Number of integer alu accesses
system.cpu.num_fp_alu_accesses                2882231                       # Number of float alu accesses
system.cpu.num_func_calls                    11025254                       # number of times a function call or return occured
system.cpu.num_conditional_control_insts     75981009                       # number of instructions that are conditional controls
system.cpu.num_int_insts                    872966681                       # number of integer instructions
system.cpu.num_fp_insts                       2882231                       # number of float instructions
system.cpu.num_int_register_reads          1835046955                       # number of times the integer registers were read
system.cpu.num_int_register_writes          703076420                       # number of times the integer registers were written
system.cpu.num_fp_register_reads              4386063                       # number of times the floating registers were read
system.cpu.num_fp_register_writes             2464405                       # number of times the floating registers were written
system.cpu.num_cc_register_reads            441654669                       # number of times the CC registers were read
system.cpu.num_cc_register_writes           253505516                       # number of times the CC registers were written
system.cpu.num_mem_refs                     293763597                       # number of memory refs
system.cpu.num_load_insts                   221285041                       # Number of load instructions
system.cpu.num_store_insts                   72478556                       # Number of store instructions
system.cpu.num_idle_cycles                          0                       # Number of idle cycles
system.cpu.num_busy_cycles                 4214469261                       # Number of busy cycles
system.cpu.not_idle_fraction                        1                       # Percentage of non-idle cycles
system.cpu.idle_fraction                            0                       # Percentage of idle cycles
system.cpu.Branches                          97901001                       # Number of branches fetched
system.cpu.op_class::No_OpClass                939429      0.11%      0.11% # Class of executed instruction
system.cpu.op_class::IntAlu                 578420257     66.01%     66.11% # Class of executed instruction
system.cpu.op_class::IntMult                   907073      0.10%     66.22% # Class of executed instruction
system.cpu.op_class::IntDiv                        42      0.00%     66.22% # Class of executed instruction
system.cpu.op_class::FloatAdd                 2283386      0.26%     66.48% # Class of executed instruction
system.cpu.op_class::FloatCmp                       0      0.00%     66.48% # Class of executed instruction
system.cpu.op_class::FloatCvt                       0      0.00%     66.48% # Class of executed instruction
system.cpu.op_class::FloatMult                      0      0.00%     66.48% # Class of executed instruction
system.cpu.op_class::FloatDiv                       0      0.00%     66.48% # Class of executed instruction
system.cpu.op_class::FloatSqrt                      0      0.00%     66.48% # Class of executed instruction
system.cpu.op_class::SimdAdd                        0      0.00%     66.48% # Class of executed instruction
system.cpu.op_class::SimdAddAcc                     0      0.00%     66.48% # Class of executed instruction
system.cpu.op_class::SimdAlu                        0      0.00%     66.48% # Class of executed instruction
system.cpu.op_class::SimdCmp                        0      0.00%     66.48% # Class of executed instruction
system.cpu.op_class::SimdCvt                        0      0.00%     66.48% # Class of executed instruction
system.cpu.op_class::SimdMisc                       0      0.00%     66.48% # Class of executed instruction
system.cpu.op_class::SimdMult                       0      0.00%     66.48% # Class of executed instruction
system.cpu.op_class::SimdMultAcc                    0      0.00%     66.48% # Class of executed instruction
system.cpu.op_class::SimdShift                      0      0.00%     66.48% # Class of executed instruction
system.cpu.op_class::SimdShiftAcc                   0      0.00%     66.48% # Class of executed instruction
system.cpu.op_class::SimdSqrt                       0      0.00%     66.48% # Class of executed instruction
system.cpu.op_class::SimdFloatAdd                   0      0.00%     66.48% # Class of executed instruction
system.cpu.op_class::SimdFloatAlu                   0      0.00%     66.48% # Class of executed instruction
system.cpu.op_class::SimdFloatCmp                   0      0.00%     66.48% # Class of executed instruction
system.cpu.op_class::SimdFloatCvt                   0      0.00%     66.48% # Class of executed instruction
system.cpu.op_class::SimdFloatDiv                   0      0.00%     66.48% # Class of executed instruction
system.cpu.op_class::SimdFloatMisc                  0      0.00%     66.48% # Class of executed instruction
system.cpu.op_class::SimdFloatMult                  0      0.00%     66.48% # Class of executed instruction
system.cpu.op_class::SimdFloatMultAcc               0      0.00%     66.48% # Class of executed instruction
system.cpu.op_class::SimdFloatSqrt                  0      0.00%     66.48% # Class of executed instruction
system.cpu.op_class::MemRead                221285041     25.25%     91.73% # Class of executed instruction
system.cpu.op_class::MemWrite                72478556      8.27%    100.00% # Class of executed instruction
system.cpu.op_class::IprAccess                      0      0.00%    100.00% # Class of executed instruction
system.cpu.op_class::InstPrefetch                   0      0.00%    100.00% # Class of executed instruction
system.cpu.op_class::total                  876313784                       # Class of executed instruction
system.cpu.dcache.tags.pwrStateResidencyTicks::UNDEFINED 2107234630500                       # Cumulative time (in ticks) in various power states
system.cpu.dcache.tags.replacements          19305761                       # number of replacements
system.cpu.dcache.tags.tagsinuse          1023.874392                       # Cycle average of tags in use
system.cpu.dcache.tags.total_refs           274505063                       # Total number of references to valid blocks.
system.cpu.dcache.tags.sampled_refs          19306785                       # Sample count of references to valid blocks.
system.cpu.dcache.tags.avg_refs             14.218062                       # Average number of references to valid blocks.
system.cpu.dcache.tags.warmup_cycle         860010500                       # Cycle when the warmup percentage was hit.
system.cpu.dcache.tags.occ_blocks::cpu.data  1023.874392                       # Average occupied blocks per requestor
system.cpu.dcache.tags.occ_percent::cpu.data     0.999877                       # Average percentage of cache occupancy
system.cpu.dcache.tags.occ_percent::total     0.999877                       # Average percentage of cache occupancy
system.cpu.dcache.tags.occ_task_id_blocks::1024         1024                       # Occupied blocks per task id
system.cpu.dcache.tags.age_task_id_blocks_1024::0           11                       # Occupied blocks per task id
system.cpu.dcache.tags.age_task_id_blocks_1024::1          669                       # Occupied blocks per task id
system.cpu.dcache.tags.age_task_id_blocks_1024::2          340                       # Occupied blocks per task id
system.cpu.dcache.tags.age_task_id_blocks_1024::3            4                       # Occupied blocks per task id
system.cpu.dcache.tags.occ_task_id_percent::1024            1                       # Percentage of cache occupancy per task id
system.cpu.dcache.tags.tag_accesses         606930481                       # Number of tag accesses
system.cpu.dcache.tags.data_accesses        606930481                       # Number of data accesses
system.cpu.dcache.pwrStateResidencyTicks::UNDEFINED 2107234630500                       # Cumulative time (in ticks) in various power states
system.cpu.dcache.ReadReq_hits::cpu.data    203251061                       # number of ReadReq hits
system.cpu.dcache.ReadReq_hits::total       203251061                       # number of ReadReq hits
system.cpu.dcache.WriteReq_hits::cpu.data     71254002                       # number of WriteReq hits
system.cpu.dcache.WriteReq_hits::total       71254002                       # number of WriteReq hits
system.cpu.dcache.demand_hits::cpu.data     274505063                       # number of demand (read+write) hits
system.cpu.dcache.demand_hits::total        274505063                       # number of demand (read+write) hits
system.cpu.dcache.overall_hits::cpu.data    274505063                       # number of overall hits
system.cpu.dcache.overall_hits::total       274505063                       # number of overall hits
system.cpu.dcache.ReadReq_misses::cpu.data     18082228                       # number of ReadReq misses
system.cpu.dcache.ReadReq_misses::total      18082228                       # number of ReadReq misses
system.cpu.dcache.WriteReq_misses::cpu.data      1224557                       # number of WriteReq misses
system.cpu.dcache.WriteReq_misses::total      1224557                       # number of WriteReq misses
system.cpu.dcache.demand_misses::cpu.data     19306785                       # number of demand (read+write) misses
system.cpu.dcache.demand_misses::total       19306785                       # number of demand (read+write) misses
system.cpu.dcache.overall_misses::cpu.data     19306785                       # number of overall misses
system.cpu.dcache.overall_misses::total      19306785                       # number of overall misses
system.cpu.dcache.ReadReq_miss_latency::cpu.data 1066721531000                       # number of ReadReq miss cycles
system.cpu.dcache.ReadReq_miss_latency::total 1066721531000                       # number of ReadReq miss cycles
system.cpu.dcache.WriteReq_miss_latency::cpu.data  51057980500                       # number of WriteReq miss cycles
system.cpu.dcache.WriteReq_miss_latency::total  51057980500                       # number of WriteReq miss cycles
system.cpu.dcache.demand_miss_latency::cpu.data 1117779511500                       # number of demand (read+write) miss cycles
system.cpu.dcache.demand_miss_latency::total 1117779511500                       # number of demand (read+write) miss cycles
system.cpu.dcache.overall_miss_latency::cpu.data 1117779511500                       # number of overall miss cycles
system.cpu.dcache.overall_miss_latency::total 1117779511500                       # number of overall miss cycles
system.cpu.dcache.ReadReq_accesses::cpu.data    221333289                       # number of ReadReq accesses(hits+misses)
system.cpu.dcache.ReadReq_accesses::total    221333289                       # number of ReadReq accesses(hits+misses)
system.cpu.dcache.WriteReq_accesses::cpu.data     72478559                       # number of WriteReq accesses(hits+misses)
system.cpu.dcache.WriteReq_accesses::total     72478559                       # number of WriteReq accesses(hits+misses)
system.cpu.dcache.demand_accesses::cpu.data    293811848                       # number of demand (read+write) accesses
system.cpu.dcache.demand_accesses::total    293811848                       # number of demand (read+write) accesses
system.cpu.dcache.overall_accesses::cpu.data    293811848                       # number of overall (read+write) accesses
system.cpu.dcache.overall_accesses::total    293811848                       # number of overall (read+write) accesses
system.cpu.dcache.ReadReq_miss_rate::cpu.data     0.081697                       # miss rate for ReadReq accesses
system.cpu.dcache.ReadReq_miss_rate::total     0.081697                       # miss rate for ReadReq accesses
system.cpu.dcache.WriteReq_miss_rate::cpu.data     0.016895                       # miss rate for WriteReq accesses
system.cpu.dcache.WriteReq_miss_rate::total     0.016895                       # miss rate for WriteReq accesses
system.cpu.dcache.demand_miss_rate::cpu.data     0.065711                       # miss rate for demand accesses
system.cpu.dcache.demand_miss_rate::total     0.065711                       # miss rate for demand accesses
system.cpu.dcache.overall_miss_rate::cpu.data     0.065711                       # miss rate for overall accesses
system.cpu.dcache.overall_miss_rate::total     0.065711                       # miss rate for overall accesses
system.cpu.dcache.ReadReq_avg_miss_latency::cpu.data 58992.814989                       # average ReadReq miss latency
system.cpu.dcache.ReadReq_avg_miss_latency::total 58992.814989                       # average ReadReq miss latency
system.cpu.dcache.WriteReq_avg_miss_latency::cpu.data 41695.062378                       # average WriteReq miss latency
system.cpu.dcache.WriteReq_avg_miss_latency::total 41695.062378                       # average WriteReq miss latency
system.cpu.dcache.demand_avg_miss_latency::cpu.data 57895.683383                       # average overall miss latency
system.cpu.dcache.demand_avg_miss_latency::total 57895.683383                       # average overall miss latency
system.cpu.dcache.overall_avg_miss_latency::cpu.data 57895.683383                       # average overall miss latency
system.cpu.dcache.overall_avg_miss_latency::total 57895.683383                       # average overall miss latency
system.cpu.dcache.blocked_cycles::no_mshrs            0                       # number of cycles access was blocked
system.cpu.dcache.blocked_cycles::no_targets            0                       # number of cycles access was blocked
system.cpu.dcache.blocked::no_mshrs                 0                       # number of cycles access was blocked
system.cpu.dcache.blocked::no_targets               0                       # number of cycles access was blocked
system.cpu.dcache.avg_blocked_cycles::no_mshrs          nan                       # average number of cycles each access was blocked
system.cpu.dcache.avg_blocked_cycles::no_targets          nan                       # average number of cycles each access was blocked
system.cpu.dcache.writebacks::writebacks      4985469                       # number of writebacks
system.cpu.dcache.writebacks::total           4985469                       # number of writebacks
system.cpu.dcache.ReadReq_mshr_misses::cpu.data     18082228                       # number of ReadReq MSHR misses
system.cpu.dcache.ReadReq_mshr_misses::total     18082228                       # number of ReadReq MSHR misses
system.cpu.dcache.WriteReq_mshr_misses::cpu.data      1224557                       # number of WriteReq MSHR misses
system.cpu.dcache.WriteReq_mshr_misses::total      1224557                       # number of WriteReq MSHR misses
system.cpu.dcache.demand_mshr_misses::cpu.data     19306785                       # number of demand (read+write) MSHR misses
system.cpu.dcache.demand_mshr_misses::total     19306785                       # number of demand (read+write) MSHR misses
system.cpu.dcache.overall_mshr_misses::cpu.data     19306785                       # number of overall MSHR misses
system.cpu.dcache.overall_mshr_misses::total     19306785                       # number of overall MSHR misses
system.cpu.dcache.ReadReq_mshr_miss_latency::cpu.data 1048639303000                       # number of ReadReq MSHR miss cycles
system.cpu.dcache.ReadReq_mshr_miss_latency::total 1048639303000                       # number of ReadReq MSHR miss cycles
system.cpu.dcache.WriteReq_mshr_miss_latency::cpu.data  49833423500                       # number of WriteReq MSHR miss cycles
system.cpu.dcache.WriteReq_mshr_miss_latency::total  49833423500                       # number of WriteReq MSHR miss cycles
system.cpu.dcache.demand_mshr_miss_latency::cpu.data 1098472726500                       # number of demand (read+write) MSHR miss cycles
system.cpu.dcache.demand_mshr_miss_latency::total 1098472726500                       # number of demand (read+write) MSHR miss cycles
system.cpu.dcache.overall_mshr_miss_latency::cpu.data 1098472726500                       # number of overall MSHR miss cycles
system.cpu.dcache.overall_mshr_miss_latency::total 1098472726500                       # number of overall MSHR miss cycles
system.cpu.dcache.ReadReq_mshr_miss_rate::cpu.data     0.081697                       # mshr miss rate for ReadReq accesses
system.cpu.dcache.ReadReq_mshr_miss_rate::total     0.081697                       # mshr miss rate for ReadReq accesses
system.cpu.dcache.WriteReq_mshr_miss_rate::cpu.data     0.016895                       # mshr miss rate for WriteReq accesses
system.cpu.dcache.WriteReq_mshr_miss_rate::total     0.016895                       # mshr miss rate for WriteReq accesses
system.cpu.dcache.demand_mshr_miss_rate::cpu.data     0.065711                       # mshr miss rate for demand accesses
system.cpu.dcache.demand_mshr_miss_rate::total     0.065711                       # mshr miss rate for demand accesses
system.cpu.dcache.overall_mshr_miss_rate::cpu.data     0.065711                       # mshr miss rate for overall accesses
system.cpu.dcache.overall_mshr_miss_rate::total     0.065711                       # mshr miss rate for overall accesses
system.cpu.dcache.ReadReq_avg_mshr_miss_latency::cpu.data 57992.814989                       # average ReadReq mshr miss latency
system.cpu.dcache.ReadReq_avg_mshr_miss_latency::total 57992.814989                       # average ReadReq mshr miss latency
system.cpu.dcache.WriteReq_avg_mshr_miss_latency::cpu.data 40695.062378                       # average WriteReq mshr miss latency
system.cpu.dcache.WriteReq_avg_mshr_miss_latency::total 40695.062378                       # average WriteReq mshr miss latency
system.cpu.dcache.demand_avg_mshr_miss_latency::cpu.data 56895.683383                       # average overall mshr miss latency
system.cpu.dcache.demand_avg_mshr_miss_latency::total 56895.683383                       # average overall mshr miss latency
system.cpu.dcache.overall_avg_mshr_miss_latency::cpu.data 56895.683383                       # average overall mshr miss latency
system.cpu.dcache.overall_avg_mshr_miss_latency::total 56895.683383                       # average overall mshr miss latency
system.cpu.dtb_walker_cache.tags.pwrStateResidencyTicks::UNDEFINED 2107234630500                       # Cumulative time (in ticks) in various power states
system.cpu.dtb_walker_cache.tags.replacements            0                       # number of replacements
system.cpu.dtb_walker_cache.tags.tagsinuse            0                       # Cycle average of tags in use
system.cpu.dtb_walker_cache.tags.total_refs            0                       # Total number of references to valid blocks.
system.cpu.dtb_walker_cache.tags.sampled_refs            0                       # Sample count of references to valid blocks.
system.cpu.dtb_walker_cache.tags.avg_refs          nan                       # Average number of references to valid blocks.
system.cpu.dtb_walker_cache.tags.warmup_cycle            0                       # Cycle when the warmup percentage was hit.
system.cpu.dtb_walker_cache.tags.tag_accesses            0                       # Number of tag accesses
system.cpu.dtb_walker_cache.tags.data_accesses            0                       # Number of data accesses
system.cpu.dtb_walker_cache.pwrStateResidencyTicks::UNDEFINED 2107234630500                       # Cumulative time (in ticks) in various power states
system.cpu.dtb_walker_cache.blocked_cycles::no_mshrs            0                       # number of cycles access was blocked
system.cpu.dtb_walker_cache.blocked_cycles::no_targets            0                       # number of cycles access was blocked
system.cpu.dtb_walker_cache.blocked::no_mshrs            0                       # number of cycles access was blocked
system.cpu.dtb_walker_cache.blocked::no_targets            0                       # number of cycles access was blocked
system.cpu.dtb_walker_cache.avg_blocked_cycles::no_mshrs          nan                       # average number of cycles each access was blocked
system.cpu.dtb_walker_cache.avg_blocked_cycles::no_targets          nan                       # average number of cycles each access was blocked
system.cpu.icache.tags.pwrStateResidencyTicks::UNDEFINED 2107234630500                       # Cumulative time (in ticks) in various power states
system.cpu.icache.tags.replacements           3126573                       # number of replacements
system.cpu.icache.tags.tagsinuse           255.996468                       # Cycle average of tags in use
system.cpu.icache.tags.total_refs           674191114                       # Total number of references to valid blocks.
system.cpu.icache.tags.sampled_refs           3126829                       # Sample count of references to valid blocks.
system.cpu.icache.tags.avg_refs            215.614961                       # Average number of references to valid blocks.
system.cpu.icache.tags.warmup_cycle         104631500                       # Cycle when the warmup percentage was hit.
system.cpu.icache.tags.occ_blocks::cpu.inst   255.996468                       # Average occupied blocks per requestor
system.cpu.icache.tags.occ_percent::cpu.inst     0.999986                       # Average percentage of cache occupancy
system.cpu.icache.tags.occ_percent::total     0.999986                       # Average percentage of cache occupancy
system.cpu.icache.tags.occ_task_id_blocks::1024          256                       # Occupied blocks per task id
system.cpu.icache.tags.age_task_id_blocks_1024::4          256                       # Occupied blocks per task id
system.cpu.icache.tags.occ_task_id_percent::1024            1                       # Percentage of cache occupancy per task id
system.cpu.icache.tags.tag_accesses        1357762715                       # Number of tag accesses
system.cpu.icache.tags.data_accesses       1357762715                       # Number of data accesses
system.cpu.icache.pwrStateResidencyTicks::UNDEFINED 2107234630500                       # Cumulative time (in ticks) in various power states
system.cpu.icache.ReadReq_hits::cpu.inst    674191114                       # number of ReadReq hits
system.cpu.icache.ReadReq_hits::total       674191114                       # number of ReadReq hits
system.cpu.icache.demand_hits::cpu.inst     674191114                       # number of demand (read+write) hits
system.cpu.icache.demand_hits::total        674191114                       # number of demand (read+write) hits
system.cpu.icache.overall_hits::cpu.inst    674191114                       # number of overall hits
system.cpu.icache.overall_hits::total       674191114                       # number of overall hits
system.cpu.icache.ReadReq_misses::cpu.inst      3126829                       # number of ReadReq misses
system.cpu.icache.ReadReq_misses::total       3126829                       # number of ReadReq misses
system.cpu.icache.demand_misses::cpu.inst      3126829                       # number of demand (read+write) misses
system.cpu.icache.demand_misses::total        3126829                       # number of demand (read+write) misses
system.cpu.icache.overall_misses::cpu.inst      3126829                       # number of overall misses
system.cpu.icache.overall_misses::total       3126829                       # number of overall misses
system.cpu.icache.ReadReq_miss_latency::cpu.inst  40792157000                       # number of ReadReq miss cycles
system.cpu.icache.ReadReq_miss_latency::total  40792157000                       # number of ReadReq miss cycles
system.cpu.icache.demand_miss_latency::cpu.inst  40792157000                       # number of demand (read+write) miss cycles
system.cpu.icache.demand_miss_latency::total  40792157000                       # number of demand (read+write) miss cycles
system.cpu.icache.overall_miss_latency::cpu.inst  40792157000                       # number of overall miss cycles
system.cpu.icache.overall_miss_latency::total  40792157000                       # number of overall miss cycles
system.cpu.icache.ReadReq_accesses::cpu.inst    677317943                       # number of ReadReq accesses(hits+misses)
system.cpu.icache.ReadReq_accesses::total    677317943                       # number of ReadReq accesses(hits+misses)
system.cpu.icache.demand_accesses::cpu.inst    677317943                       # number of demand (read+write) accesses
system.cpu.icache.demand_accesses::total    677317943                       # number of demand (read+write) accesses
system.cpu.icache.overall_accesses::cpu.inst    677317943                       # number of overall (read+write) accesses
system.cpu.icache.overall_accesses::total    677317943                       # number of overall (read+write) accesses
system.cpu.icache.ReadReq_miss_rate::cpu.inst     0.004616                       # miss rate for ReadReq accesses
system.cpu.icache.ReadReq_miss_rate::total     0.004616                       # miss rate for ReadReq accesses
system.cpu.icache.demand_miss_rate::cpu.inst     0.004616                       # miss rate for demand accesses
system.cpu.icache.demand_miss_rate::total     0.004616                       # miss rate for demand accesses
system.cpu.icache.overall_miss_rate::cpu.inst     0.004616                       # miss rate for overall accesses
system.cpu.icache.overall_miss_rate::total     0.004616                       # miss rate for overall accesses
system.cpu.icache.ReadReq_avg_miss_latency::cpu.inst 13045.854762                       # average ReadReq miss latency
system.cpu.icache.ReadReq_avg_miss_latency::total 13045.854762                       # average ReadReq miss latency
system.cpu.icache.demand_avg_miss_latency::cpu.inst 13045.854762                       # average overall miss latency
system.cpu.icache.demand_avg_miss_latency::total 13045.854762                       # average overall miss latency
system.cpu.icache.overall_avg_miss_latency::cpu.inst 13045.854762                       # average overall miss latency
system.cpu.icache.overall_avg_miss_latency::total 13045.854762                       # average overall miss latency
system.cpu.icache.blocked_cycles::no_mshrs            0                       # number of cycles access was blocked
system.cpu.icache.blocked_cycles::no_targets            0                       # number of cycles access was blocked
system.cpu.icache.blocked::no_mshrs                 0                       # number of cycles access was blocked
system.cpu.icache.blocked::no_targets               0                       # number of cycles access was blocked
system.cpu.icache.avg_blocked_cycles::no_mshrs          nan                       # average number of cycles each access was blocked
system.cpu.icache.avg_blocked_cycles::no_targets          nan                       # average number of cycles each access was blocked
system.cpu.icache.writebacks::writebacks      3126573                       # number of writebacks
system.cpu.icache.writebacks::total           3126573                       # number of writebacks
system.cpu.icache.ReadReq_mshr_misses::cpu.inst      3126829                       # number of ReadReq MSHR misses
system.cpu.icache.ReadReq_mshr_misses::total      3126829                       # number of ReadReq MSHR misses
system.cpu.icache.demand_mshr_misses::cpu.inst      3126829                       # number of demand (read+write) MSHR misses
system.cpu.icache.demand_mshr_misses::total      3126829                       # number of demand (read+write) MSHR misses
system.cpu.icache.overall_mshr_misses::cpu.inst      3126829                       # number of overall MSHR misses
system.cpu.icache.overall_mshr_misses::total      3126829                       # number of overall MSHR misses
system.cpu.icache.ReadReq_mshr_miss_latency::cpu.inst  37665328000                       # number of ReadReq MSHR miss cycles
system.cpu.icache.ReadReq_mshr_miss_latency::total  37665328000                       # number of ReadReq MSHR miss cycles
system.cpu.icache.demand_mshr_miss_latency::cpu.inst  37665328000                       # number of demand (read+write) MSHR miss cycles
system.cpu.icache.demand_mshr_miss_latency::total  37665328000                       # number of demand (read+write) MSHR miss cycles
system.cpu.icache.overall_mshr_miss_latency::cpu.inst  37665328000                       # number of overall MSHR miss cycles
system.cpu.icache.overall_mshr_miss_latency::total  37665328000                       # number of overall MSHR miss cycles
system.cpu.icache.ReadReq_mshr_miss_rate::cpu.inst     0.004616                       # mshr miss rate for ReadReq accesses
system.cpu.icache.ReadReq_mshr_miss_rate::total     0.004616                       # mshr miss rate for ReadReq accesses
system.cpu.icache.demand_mshr_miss_rate::cpu.inst     0.004616                       # mshr miss rate for demand accesses
system.cpu.icache.demand_mshr_miss_rate::total     0.004616                       # mshr miss rate for demand accesses
system.cpu.icache.overall_mshr_miss_rate::cpu.inst     0.004616                       # mshr miss rate for overall accesses
system.cpu.icache.overall_mshr_miss_rate::total     0.004616                       # mshr miss rate for overall accesses
system.cpu.icache.ReadReq_avg_mshr_miss_latency::cpu.inst 12045.854762                       # average ReadReq mshr miss latency
system.cpu.icache.ReadReq_avg_mshr_miss_latency::total 12045.854762                       # average ReadReq mshr miss latency
system.cpu.icache.demand_avg_mshr_miss_latency::cpu.inst 12045.854762                       # average overall mshr miss latency
system.cpu.icache.demand_avg_mshr_miss_latency::total 12045.854762                       # average overall mshr miss latency
system.cpu.icache.overall_avg_mshr_miss_latency::cpu.inst 12045.854762                       # average overall mshr miss latency
system.cpu.icache.overall_avg_mshr_miss_latency::total 12045.854762                       # average overall mshr miss latency
system.cpu.itb_walker_cache.tags.pwrStateResidencyTicks::UNDEFINED 2107234630500                       # Cumulative time (in ticks) in various power states
system.cpu.itb_walker_cache.tags.replacements            0                       # number of replacements
system.cpu.itb_walker_cache.tags.tagsinuse            0                       # Cycle average of tags in use
system.cpu.itb_walker_cache.tags.total_refs            0                       # Total number of references to valid blocks.
system.cpu.itb_walker_cache.tags.sampled_refs            0                       # Sample count of references to valid blocks.
system.cpu.itb_walker_cache.tags.avg_refs          nan                       # Average number of references to valid blocks.
system.cpu.itb_walker_cache.tags.warmup_cycle            0                       # Cycle when the warmup percentage was hit.
system.cpu.itb_walker_cache.tags.tag_accesses            0                       # Number of tag accesses
system.cpu.itb_walker_cache.tags.data_accesses            0                       # Number of data accesses
system.cpu.itb_walker_cache.pwrStateResidencyTicks::UNDEFINED 2107234630500                       # Cumulative time (in ticks) in various power states
system.cpu.itb_walker_cache.blocked_cycles::no_mshrs            0                       # number of cycles access was blocked
system.cpu.itb_walker_cache.blocked_cycles::no_targets            0                       # number of cycles access was blocked
system.cpu.itb_walker_cache.blocked::no_mshrs            0                       # number of cycles access was blocked
system.cpu.itb_walker_cache.blocked::no_targets            0                       # number of cycles access was blocked
system.cpu.itb_walker_cache.avg_blocked_cycles::no_mshrs          nan                       # average number of cycles each access was blocked
system.cpu.itb_walker_cache.avg_blocked_cycles::no_targets          nan                       # average number of cycles each access was blocked
system.l2.tags.pwrStateResidencyTicks::UNDEFINED 2107234630500                       # Cumulative time (in ticks) in various power states
system.l2.tags.replacements                  10638923                       # number of replacements
system.l2.tags.tagsinuse                 32620.180365                       # Cycle average of tags in use
system.l2.tags.total_refs                    33844592                       # Total number of references to valid blocks.
system.l2.tags.sampled_refs                  10671691                       # Sample count of references to valid blocks.
system.l2.tags.avg_refs                      3.171437                       # Average number of references to valid blocks.
system.l2.tags.warmup_cycle               26125434000                       # Cycle when the warmup percentage was hit.
system.l2.tags.occ_blocks::writebacks      305.068749                       # Average occupied blocks per requestor
system.l2.tags.occ_blocks::cpu.inst          7.951768                       # Average occupied blocks per requestor
system.l2.tags.occ_blocks::cpu.data      32307.159849                       # Average occupied blocks per requestor
system.l2.tags.occ_percent::writebacks       0.009310                       # Average percentage of cache occupancy
system.l2.tags.occ_percent::cpu.inst         0.000243                       # Average percentage of cache occupancy
system.l2.tags.occ_percent::cpu.data         0.985936                       # Average percentage of cache occupancy
system.l2.tags.occ_percent::total            0.995489                       # Average percentage of cache occupancy
system.l2.tags.occ_task_id_blocks::1024         32768                       # Occupied blocks per task id
system.l2.tags.age_task_id_blocks_1024::0            1                       # Occupied blocks per task id
system.l2.tags.age_task_id_blocks_1024::1          550                       # Occupied blocks per task id
system.l2.tags.age_task_id_blocks_1024::2         4389                       # Occupied blocks per task id
system.l2.tags.age_task_id_blocks_1024::3        18730                       # Occupied blocks per task id
system.l2.tags.age_task_id_blocks_1024::4         9098                       # Occupied blocks per task id
system.l2.tags.occ_task_id_percent::1024            1                       # Percentage of cache occupancy per task id
system.l2.tags.tag_accesses                  55537638                       # Number of tag accesses
system.l2.tags.data_accesses                 55537638                       # Number of data accesses
system.l2.pwrStateResidencyTicks::UNDEFINED 2107234630500                       # Cumulative time (in ticks) in various power states
system.l2.WritebackDirty_hits::writebacks      4985469                       # number of WritebackDirty hits
system.l2.WritebackDirty_hits::total          4985469                       # number of WritebackDirty hits
system.l2.WritebackClean_hits::writebacks      3126572                       # number of WritebackClean hits
system.l2.WritebackClean_hits::total          3126572                       # number of WritebackClean hits
system.l2.ReadExReq_hits::cpu.data             766797                       # number of ReadExReq hits
system.l2.ReadExReq_hits::total                766797                       # number of ReadExReq hits
system.l2.ReadCleanReq_hits::cpu.inst         3125168                       # number of ReadCleanReq hits
system.l2.ReadCleanReq_hits::total            3125168                       # number of ReadCleanReq hits
system.l2.ReadSharedReq_hits::cpu.data        7993544                       # number of ReadSharedReq hits
system.l2.ReadSharedReq_hits::total           7993544                       # number of ReadSharedReq hits
system.l2.demand_hits::cpu.inst               3125168                       # number of demand (read+write) hits
system.l2.demand_hits::cpu.data               8760341                       # number of demand (read+write) hits
system.l2.demand_hits::total                 11885509                       # number of demand (read+write) hits
system.l2.overall_hits::cpu.inst              3125168                       # number of overall hits
system.l2.overall_hits::cpu.data              8760341                       # number of overall hits
system.l2.overall_hits::total                11885509                       # number of overall hits
system.l2.ReadExReq_misses::cpu.data           457760                       # number of ReadExReq misses
system.l2.ReadExReq_misses::total              457760                       # number of ReadExReq misses
system.l2.ReadCleanReq_misses::cpu.inst          1661                       # number of ReadCleanReq misses
system.l2.ReadCleanReq_misses::total             1661                       # number of ReadCleanReq misses
system.l2.ReadSharedReq_misses::cpu.data     10088684                       # number of ReadSharedReq misses
system.l2.ReadSharedReq_misses::total        10088684                       # number of ReadSharedReq misses
system.l2.demand_misses::cpu.inst                1661                       # number of demand (read+write) misses
system.l2.demand_misses::cpu.data            10546444                       # number of demand (read+write) misses
system.l2.demand_misses::total               10548105                       # number of demand (read+write) misses
system.l2.overall_misses::cpu.inst               1661                       # number of overall misses
system.l2.overall_misses::cpu.data           10546444                       # number of overall misses
system.l2.overall_misses::total              10548105                       # number of overall misses
system.l2.ReadExReq_miss_latency::cpu.data  39945219500                       # number of ReadExReq miss cycles
system.l2.ReadExReq_miss_latency::total   39945219500                       # number of ReadExReq miss cycles
system.l2.ReadCleanReq_miss_latency::cpu.inst    160819500                       # number of ReadCleanReq miss cycles
system.l2.ReadCleanReq_miss_latency::total    160819500                       # number of ReadCleanReq miss cycles
system.l2.ReadSharedReq_miss_latency::cpu.data 937583682000                       # number of ReadSharedReq miss cycles
system.l2.ReadSharedReq_miss_latency::total 937583682000                       # number of ReadSharedReq miss cycles
system.l2.demand_miss_latency::cpu.inst     160819500                       # number of demand (read+write) miss cycles
system.l2.demand_miss_latency::cpu.data  977528901500                       # number of demand (read+write) miss cycles
system.l2.demand_miss_latency::total     977689721000                       # number of demand (read+write) miss cycles
system.l2.overall_miss_latency::cpu.inst    160819500                       # number of overall miss cycles
system.l2.overall_miss_latency::cpu.data 977528901500                       # number of overall miss cycles
system.l2.overall_miss_latency::total    977689721000                       # number of overall miss cycles
system.l2.WritebackDirty_accesses::writebacks      4985469                       # number of WritebackDirty accesses(hits+misses)
system.l2.WritebackDirty_accesses::total      4985469                       # number of WritebackDirty accesses(hits+misses)
system.l2.WritebackClean_accesses::writebacks      3126572                       # number of WritebackClean accesses(hits+misses)
system.l2.WritebackClean_accesses::total      3126572                       # number of WritebackClean accesses(hits+misses)
system.l2.ReadExReq_accesses::cpu.data        1224557                       # number of ReadExReq accesses(hits+misses)
system.l2.ReadExReq_accesses::total           1224557                       # number of ReadExReq accesses(hits+misses)
system.l2.ReadCleanReq_accesses::cpu.inst      3126829                       # number of ReadCleanReq accesses(hits+misses)
system.l2.ReadCleanReq_accesses::total        3126829                       # number of ReadCleanReq accesses(hits+misses)
system.l2.ReadSharedReq_accesses::cpu.data     18082228                       # number of ReadSharedReq accesses(hits+misses)
system.l2.ReadSharedReq_accesses::total      18082228                       # number of ReadSharedReq accesses(hits+misses)
system.l2.demand_accesses::cpu.inst           3126829                       # number of demand (read+write) accesses
system.l2.demand_accesses::cpu.data          19306785                       # number of demand (read+write) accesses
system.l2.demand_accesses::total             22433614                       # number of demand (read+write) accesses
system.l2.overall_accesses::cpu.inst          3126829                       # number of overall (read+write) accesses
system.l2.overall_accesses::cpu.data         19306785                       # number of overall (read+write) accesses
system.l2.overall_accesses::total            22433614                       # number of overall (read+write) accesses
system.l2.ReadExReq_miss_rate::cpu.data      0.373817                       # miss rate for ReadExReq accesses
system.l2.ReadExReq_miss_rate::total         0.373817                       # miss rate for ReadExReq accesses
system.l2.ReadCleanReq_miss_rate::cpu.inst     0.000531                       # miss rate for ReadCleanReq accesses
system.l2.ReadCleanReq_miss_rate::total      0.000531                       # miss rate for ReadCleanReq accesses
system.l2.ReadSharedReq_miss_rate::cpu.data     0.557934                       # miss rate for ReadSharedReq accesses
system.l2.ReadSharedReq_miss_rate::total     0.557934                       # miss rate for ReadSharedReq accesses
system.l2.demand_miss_rate::cpu.inst         0.000531                       # miss rate for demand accesses
system.l2.demand_miss_rate::cpu.data         0.546256                       # miss rate for demand accesses
system.l2.demand_miss_rate::total            0.470192                       # miss rate for demand accesses
system.l2.overall_miss_rate::cpu.inst        0.000531                       # miss rate for overall accesses
system.l2.overall_miss_rate::cpu.data        0.546256                       # miss rate for overall accesses
system.l2.overall_miss_rate::total           0.470192                       # miss rate for overall accesses
system.l2.ReadExReq_avg_miss_latency::cpu.data 87262.363466                       # average ReadExReq miss latency
system.l2.ReadExReq_avg_miss_latency::total 87262.363466                       # average ReadExReq miss latency
system.l2.ReadCleanReq_avg_miss_latency::cpu.inst 96820.891030                       # average ReadCleanReq miss latency
system.l2.ReadCleanReq_avg_miss_latency::total 96820.891030                       # average ReadCleanReq miss latency
system.l2.ReadSharedReq_avg_miss_latency::cpu.data 92934.190624                       # average ReadSharedReq miss latency
system.l2.ReadSharedReq_avg_miss_latency::total 92934.190624                       # average ReadSharedReq miss latency
system.l2.demand_avg_miss_latency::cpu.inst 96820.891030                       # average overall miss latency
system.l2.demand_avg_miss_latency::cpu.data 92688.009485                       # average overall miss latency
system.l2.demand_avg_miss_latency::total 92688.660285                       # average overall miss latency
system.l2.overall_avg_miss_latency::cpu.inst 96820.891030                       # average overall miss latency
system.l2.overall_avg_miss_latency::cpu.data 92688.009485                       # average overall miss latency
system.l2.overall_avg_miss_latency::total 92688.660285                       # average overall miss latency
system.l2.blocked_cycles::no_mshrs                  0                       # number of cycles access was blocked
system.l2.blocked_cycles::no_targets                0                       # number of cycles access was blocked
system.l2.blocked::no_mshrs                         0                       # number of cycles access was blocked
system.l2.blocked::no_targets                       0                       # number of cycles access was blocked
system.l2.avg_blocked_cycles::no_mshrs            nan                       # average number of cycles each access was blocked
system.l2.avg_blocked_cycles::no_targets          nan                       # average number of cycles each access was blocked
system.l2.writebacks::writebacks              1320098                       # number of writebacks
system.l2.writebacks::total                   1320098                       # number of writebacks
system.l2.CleanEvict_mshr_misses::writebacks       349664                       # number of CleanEvict MSHR misses
system.l2.CleanEvict_mshr_misses::total        349664                       # number of CleanEvict MSHR misses
system.l2.ReadExReq_mshr_misses::cpu.data       457760                       # number of ReadExReq MSHR misses
system.l2.ReadExReq_mshr_misses::total         457760                       # number of ReadExReq MSHR misses
system.l2.ReadCleanReq_mshr_misses::cpu.inst         1661                       # number of ReadCleanReq MSHR misses
system.l2.ReadCleanReq_mshr_misses::total         1661                       # number of ReadCleanReq MSHR misses
system.l2.ReadSharedReq_mshr_misses::cpu.data     10088684                       # number of ReadSharedReq MSHR misses
system.l2.ReadSharedReq_mshr_misses::total     10088684                       # number of ReadSharedReq MSHR misses
system.l2.demand_mshr_misses::cpu.inst           1661                       # number of demand (read+write) MSHR misses
system.l2.demand_mshr_misses::cpu.data       10546444                       # number of demand (read+write) MSHR misses
system.l2.demand_mshr_misses::total          10548105                       # number of demand (read+write) MSHR misses
system.l2.overall_mshr_misses::cpu.inst          1661                       # number of overall MSHR misses
system.l2.overall_mshr_misses::cpu.data      10546444                       # number of overall MSHR misses
system.l2.overall_mshr_misses::total         10548105                       # number of overall MSHR misses
system.l2.ReadExReq_mshr_miss_latency::cpu.data  35367619500                       # number of ReadExReq MSHR miss cycles
system.l2.ReadExReq_mshr_miss_latency::total  35367619500                       # number of ReadExReq MSHR miss cycles
system.l2.ReadCleanReq_mshr_miss_latency::cpu.inst    144209500                       # number of ReadCleanReq MSHR miss cycles
system.l2.ReadCleanReq_mshr_miss_latency::total    144209500                       # number of ReadCleanReq MSHR miss cycles
system.l2.ReadSharedReq_mshr_miss_latency::cpu.data 836696842000                       # number of ReadSharedReq MSHR miss cycles
system.l2.ReadSharedReq_mshr_miss_latency::total 836696842000                       # number of ReadSharedReq MSHR miss cycles
system.l2.demand_mshr_miss_latency::cpu.inst    144209500                       # number of demand (read+write) MSHR miss cycles
system.l2.demand_mshr_miss_latency::cpu.data 872064461500                       # number of demand (read+write) MSHR miss cycles
system.l2.demand_mshr_miss_latency::total 872208671000                       # number of demand (read+write) MSHR miss cycles
system.l2.overall_mshr_miss_latency::cpu.inst    144209500                       # number of overall MSHR miss cycles
system.l2.overall_mshr_miss_latency::cpu.data 872064461500                       # number of overall MSHR miss cycles
system.l2.overall_mshr_miss_latency::total 872208671000                       # number of overall MSHR miss cycles
system.l2.CleanEvict_mshr_miss_rate::writebacks          inf                       # mshr miss rate for CleanEvict accesses
system.l2.CleanEvict_mshr_miss_rate::total          inf                       # mshr miss rate for CleanEvict accesses
system.l2.ReadExReq_mshr_miss_rate::cpu.data     0.373817                       # mshr miss rate for ReadExReq accesses
system.l2.ReadExReq_mshr_miss_rate::total     0.373817                       # mshr miss rate for ReadExReq accesses
system.l2.ReadCleanReq_mshr_miss_rate::cpu.inst     0.000531                       # mshr miss rate for ReadCleanReq accesses
system.l2.ReadCleanReq_mshr_miss_rate::total     0.000531                       # mshr miss rate for ReadCleanReq accesses
system.l2.ReadSharedReq_mshr_miss_rate::cpu.data     0.557934                       # mshr miss rate for ReadSharedReq accesses
system.l2.ReadSharedReq_mshr_miss_rate::total     0.557934                       # mshr miss rate for ReadSharedReq accesses
system.l2.demand_mshr_miss_rate::cpu.inst     0.000531                       # mshr miss rate for demand accesses
system.l2.demand_mshr_miss_rate::cpu.data     0.546256                       # mshr miss rate for demand accesses
system.l2.demand_mshr_miss_rate::total       0.470192                       # mshr miss rate for demand accesses
system.l2.overall_mshr_miss_rate::cpu.inst     0.000531                       # mshr miss rate for overall accesses
system.l2.overall_mshr_miss_rate::cpu.data     0.546256                       # mshr miss rate for overall accesses
system.l2.overall_mshr_miss_rate::total      0.470192                       # mshr miss rate for overall accesses
system.l2.ReadExReq_avg_mshr_miss_latency::cpu.data 77262.363466                       # average ReadExReq mshr miss latency
system.l2.ReadExReq_avg_mshr_miss_latency::total 77262.363466                       # average ReadExReq mshr miss latency
system.l2.ReadCleanReq_avg_mshr_miss_latency::cpu.inst 86820.891030                       # average ReadCleanReq mshr miss latency
system.l2.ReadCleanReq_avg_mshr_miss_latency::total 86820.891030                       # average ReadCleanReq mshr miss latency
system.l2.ReadSharedReq_avg_mshr_miss_latency::cpu.data 82934.190624                       # average ReadSharedReq mshr miss latency
system.l2.ReadSharedReq_avg_mshr_miss_latency::total 82934.190624                       # average ReadSharedReq mshr miss latency
system.l2.demand_avg_mshr_miss_latency::cpu.inst 86820.891030                       # average overall mshr miss latency
system.l2.demand_avg_mshr_miss_latency::cpu.data 82688.009485                       # average overall mshr miss latency
system.l2.demand_avg_mshr_miss_latency::total 82688.660285                       # average overall mshr miss latency
system.l2.overall_avg_mshr_miss_latency::cpu.inst 86820.891030                       # average overall mshr miss latency
system.l2.overall_avg_mshr_miss_latency::cpu.data 82688.009485                       # average overall mshr miss latency
system.l2.overall_avg_mshr_miss_latency::total 82688.660285                       # average overall mshr miss latency
system.membus.snoop_filter.tot_requests      21063178                       # Total number of requests made to the snoop filter.
system.membus.snoop_filter.hit_single_requests     10515073                       # Number of requests hitting in the snoop filter with a single holder of the requested data.
system.membus.snoop_filter.hit_multi_requests            0                       # Number of requests hitting in the snoop filter with multiple (>1) holders of the requested data.
system.membus.snoop_filter.tot_snoops               0                       # Total number of snoops made to the snoop filter.
system.membus.snoop_filter.hit_single_snoops            0                       # Number of snoops hitting in the snoop filter with a single holder of the requested data.
system.membus.snoop_filter.hit_multi_snoops            0                       # Number of snoops hitting in the snoop filter with multiple (>1) holders of the requested data.
system.membus.pwrStateResidencyTicks::UNDEFINED 2107234630500                       # Cumulative time (in ticks) in various power states
system.membus.trans_dist::ReadResp           10090345                       # Transaction distribution
system.membus.trans_dist::WritebackDirty      1320098                       # Transaction distribution
system.membus.trans_dist::CleanEvict          9194975                       # Transaction distribution
system.membus.trans_dist::ReadExReq            457760                       # Transaction distribution
system.membus.trans_dist::ReadExResp           457760                       # Transaction distribution
system.membus.trans_dist::ReadSharedReq      10090345                       # Transaction distribution
system.membus.pkt_count_system.l2.mem_side::system.mem_ctrls.port     31611283                       # Packet count per connected master and slave (bytes)
system.membus.pkt_count_system.l2.mem_side::total     31611283                       # Packet count per connected master and slave (bytes)
system.membus.pkt_count::total               31611283                       # Packet count per connected master and slave (bytes)
system.membus.pkt_size_system.l2.mem_side::system.mem_ctrls.port    379782496                       # Cumulative packet size per connected master and slave (bytes)
system.membus.pkt_size_system.l2.mem_side::total    379782496                       # Cumulative packet size per connected master and slave (bytes)
system.membus.pkt_size::total               379782496                       # Cumulative packet size per connected master and slave (bytes)
system.membus.snoops                                0                       # Total snoops (count)
system.membus.snoopTraffic                          0                       # Total snoop traffic (bytes)
system.membus.snoop_fanout::samples          10548105                       # Request fanout histogram
system.membus.snoop_fanout::mean                    0                       # Request fanout histogram
system.membus.snoop_fanout::stdev                   0                       # Request fanout histogram
system.membus.snoop_fanout::underflows              0      0.00%      0.00% # Request fanout histogram
system.membus.snoop_fanout::0                10548105    100.00%    100.00% # Request fanout histogram
system.membus.snoop_fanout::1                       0      0.00%    100.00% # Request fanout histogram
system.membus.snoop_fanout::overflows               0      0.00%    100.00% # Request fanout histogram
system.membus.snoop_fanout::min_value               0                       # Request fanout histogram
system.membus.snoop_fanout::max_value               0                       # Request fanout histogram
system.membus.snoop_fanout::total            10548105                       # Request fanout histogram
system.membus.reqLayer2.occupancy         23717080000                       # Layer occupancy (ticks)
system.membus.reqLayer2.utilization               1.1                       # Layer utilization (%)
system.membus.respLayer1.occupancy        36412040000                       # Layer occupancy (ticks)
system.membus.respLayer1.utilization              1.7                       # Layer utilization (%)
system.tol2bus.snoop_filter.tot_requests     44865948                       # Total number of requests made to the snoop filter.
system.tol2bus.snoop_filter.hit_single_requests     22432334                       # Number of requests hitting in the snoop filter with a single holder of the requested data.
system.tol2bus.snoop_filter.hit_multi_requests            1                       # Number of requests hitting in the snoop filter with multiple (>1) holders of the requested data.
system.tol2bus.snoop_filter.tot_snoops         473514                       # Total number of snoops made to the snoop filter.
system.tol2bus.snoop_filter.hit_single_snoops       473514                       # Number of snoops hitting in the snoop filter with a single holder of the requested data.
system.tol2bus.snoop_filter.hit_multi_snoops            0                       # Number of snoops hitting in the snoop filter with multiple (>1) holders of the requested data.
system.tol2bus.pwrStateResidencyTicks::UNDEFINED 2107234630500                       # Cumulative time (in ticks) in various power states
system.tol2bus.trans_dist::ReadResp          21209057                       # Transaction distribution
system.tol2bus.trans_dist::WritebackDirty      6305567                       # Transaction distribution
system.tol2bus.trans_dist::WritebackClean      3126573                       # Transaction distribution
system.tol2bus.trans_dist::CleanEvict        23639117                       # Transaction distribution
system.tol2bus.trans_dist::ReadExReq          1224557                       # Transaction distribution
system.tol2bus.trans_dist::ReadExResp         1224557                       # Transaction distribution
system.tol2bus.trans_dist::ReadCleanReq       3126829                       # Transaction distribution
system.tol2bus.trans_dist::ReadSharedReq     18082228                       # Transaction distribution
system.tol2bus.pkt_count_system.cpu.icache.mem_side::system.l2.cpu_side      9380231                       # Packet count per connected master and slave (bytes)
system.tol2bus.pkt_count_system.cpu.dcache.mem_side::system.l2.cpu_side     57919331                       # Packet count per connected master and slave (bytes)
system.tol2bus.pkt_count::total              67299562                       # Packet count per connected master and slave (bytes)
system.tol2bus.pkt_size_system.cpu.icache.mem_side::system.l2.cpu_side    200108864                       # Cumulative packet size per connected master and slave (bytes)
system.tol2bus.pkt_size_system.cpu.dcache.mem_side::system.l2.cpu_side    777352128                       # Cumulative packet size per connected master and slave (bytes)
system.tol2bus.pkt_size::total              977460992                       # Cumulative packet size per connected master and slave (bytes)
system.tol2bus.snoops                        10638923                       # Total snoops (count)
system.tol2bus.snoopTraffic                  42243136                       # Total snoop traffic (bytes)
system.tol2bus.snoop_fanout::samples         33072537                       # Request fanout histogram
system.tol2bus.snoop_fanout::mean            0.014317                       # Request fanout histogram
system.tol2bus.snoop_fanout::stdev           0.118796                       # Request fanout histogram
system.tol2bus.snoop_fanout::underflows             0      0.00%      0.00% # Request fanout histogram
system.tol2bus.snoop_fanout::0               32599022     98.57%     98.57% # Request fanout histogram
system.tol2bus.snoop_fanout::1                 473515      1.43%    100.00% # Request fanout histogram
system.tol2bus.snoop_fanout::2                      0      0.00%    100.00% # Request fanout histogram
system.tol2bus.snoop_fanout::3                      0      0.00%    100.00% # Request fanout histogram
system.tol2bus.snoop_fanout::4                      0      0.00%    100.00% # Request fanout histogram
system.tol2bus.snoop_fanout::overflows              0      0.00%    100.00% # Request fanout histogram
system.tol2bus.snoop_fanout::min_value              0                       # Request fanout histogram
system.tol2bus.snoop_fanout::max_value              1                       # Request fanout histogram
system.tol2bus.snoop_fanout::total           33072537                       # Request fanout histogram
system.tol2bus.reqLayer0.occupancy        26488995000                       # Layer occupancy (ticks)
system.tol2bus.reqLayer0.utilization              1.3                       # Layer utilization (%)
system.tol2bus.respLayer0.occupancy        3126829000                       # Layer occupancy (ticks)
system.tol2bus.respLayer0.utilization             0.1                       # Layer utilization (%)
system.tol2bus.respLayer1.occupancy       19306785000                       # Layer occupancy (ticks)
system.tol2bus.respLayer1.utilization             0.9                       # Layer utilization (%)

---------- End Simulation Statistics   ----------
