
---------- Begin Simulation Statistics ----------
sim_seconds                                  2.148139                       # Number of seconds simulated
sim_ticks                                2148138569500                       # Number of ticks simulated
final_tick                               2148138569500                       # Number of ticks from beginning of simulation (restored from checkpoints and never reset)
sim_freq                                 1000000000000                       # Frequency of simulated ticks
host_inst_rate                                 326763                       # Simulator instruction rate (inst/s)
host_op_rate                                   572694                       # Simulator op (including micro ops) rate (op/s)
host_tick_rate                             1403865204                       # Simulator tick rate (ticks/s)
host_mem_usage                                 656304                       # Number of bytes of host memory used
host_seconds                                  1530.16                       # Real time elapsed on the host
sim_insts                                   500000000                       # Number of instructions simulated
sim_ops                                     876313784                       # Number of ops (including micro ops) simulated
system.voltage_domain.voltage                       1                       # Voltage in Volts
system.clk_domain.clock                          1000                       # Clock period in ticks
system.mem_ctrls.pwrStateResidencyTicks::UNDEFINED 2148138569500                       # Cumulative time (in ticks) in various power states
system.mem_ctrls.bytes_read::cpu.inst           39648                       # Number of bytes read from this memory
system.mem_ctrls.bytes_read::cpu.data       322911872                       # Number of bytes read from this memory
system.mem_ctrls.bytes_read::total          322951520                       # Number of bytes read from this memory
system.mem_ctrls.bytes_inst_read::cpu.inst        39648                       # Number of instructions bytes read from this memory
system.mem_ctrls.bytes_inst_read::total         39648                       # Number of instructions bytes read from this memory
system.mem_ctrls.bytes_written::writebacks     39840832                       # Number of bytes written to this memory
system.mem_ctrls.bytes_written::total        39840832                       # Number of bytes written to this memory
system.mem_ctrls.num_reads::cpu.inst             1239                       # Number of read requests responded to by this memory
system.mem_ctrls.num_reads::cpu.data         10090996                       # Number of read requests responded to by this memory
system.mem_ctrls.num_reads::total            10092235                       # Number of read requests responded to by this memory
system.mem_ctrls.num_writes::writebacks       1245026                       # Number of write requests responded to by this memory
system.mem_ctrls.num_writes::total            1245026                       # Number of write requests responded to by this memory
system.mem_ctrls.bw_read::cpu.inst              18457                       # Total read bandwidth from this memory (bytes/s)
system.mem_ctrls.bw_read::cpu.data          150321714                       # Total read bandwidth from this memory (bytes/s)
system.mem_ctrls.bw_read::total             150340171                       # Total read bandwidth from this memory (bytes/s)
system.mem_ctrls.bw_inst_read::cpu.inst         18457                       # Instruction read bandwidth from this memory (bytes/s)
system.mem_ctrls.bw_inst_read::total            18457                       # Instruction read bandwidth from this memory (bytes/s)
system.mem_ctrls.bw_write::writebacks        18546677                       # Write bandwidth from this memory (bytes/s)
system.mem_ctrls.bw_write::total             18546677                       # Write bandwidth from this memory (bytes/s)
system.mem_ctrls.bw_total::writebacks        18546677                       # Total bandwidth to/from this memory (bytes/s)
system.mem_ctrls.bw_total::cpu.inst             18457                       # Total bandwidth to/from this memory (bytes/s)
system.mem_ctrls.bw_total::cpu.data         150321714                       # Total bandwidth to/from this memory (bytes/s)
system.mem_ctrls.bw_total::total            168886848                       # Total bandwidth to/from this memory (bytes/s)
system.mem_ctrls.readReqs                    10092235                       # Number of read requests accepted
system.mem_ctrls.writeReqs                    1245026                       # Number of write requests accepted
system.mem_ctrls.readBursts                  10092235                       # Number of DRAM read bursts, including those serviced by the write queue
system.mem_ctrls.writeBursts                  1245026                       # Number of DRAM write bursts, including those merged in the write queue
system.mem_ctrls.bytesReadDRAM              645446144                       # Total number of bytes read from DRAM
system.mem_ctrls.bytesReadWrQ                  456896                       # Total number of bytes read from write queue
system.mem_ctrls.bytesWritten                74333632                       # Total number of bytes written to DRAM
system.mem_ctrls.bytesReadSys               322951520                       # Total read bytes from the system interface side
system.mem_ctrls.bytesWrittenSys             39840832                       # Total written bytes from the system interface side
system.mem_ctrls.servicedByWrQ                   7139                       # Number of DRAM read bursts serviced by the write queue
system.mem_ctrls.mergedWrBursts                 83547                       # Number of DRAM write bursts merged with an existing one
system.mem_ctrls.neitherReadNorWriteReqs            0                       # Number of requests that are neither read nor write
system.mem_ctrls.perBankRdBursts::0            646858                       # Per bank write bursts
system.mem_ctrls.perBankRdBursts::1            626691                       # Per bank write bursts
system.mem_ctrls.perBankRdBursts::2            627705                       # Per bank write bursts
system.mem_ctrls.perBankRdBursts::3            643112                       # Per bank write bursts
system.mem_ctrls.perBankRdBursts::4            617943                       # Per bank write bursts
system.mem_ctrls.perBankRdBursts::5            620667                       # Per bank write bursts
system.mem_ctrls.perBankRdBursts::6            627766                       # Per bank write bursts
system.mem_ctrls.perBankRdBursts::7            616105                       # Per bank write bursts
system.mem_ctrls.perBankRdBursts::8            625330                       # Per bank write bursts
system.mem_ctrls.perBankRdBursts::9            620887                       # Per bank write bursts
system.mem_ctrls.perBankRdBursts::10           621281                       # Per bank write bursts
system.mem_ctrls.perBankRdBursts::11           629872                       # Per bank write bursts
system.mem_ctrls.perBankRdBursts::12           639382                       # Per bank write bursts
system.mem_ctrls.perBankRdBursts::13           643068                       # Per bank write bursts
system.mem_ctrls.perBankRdBursts::14           637412                       # Per bank write bursts
system.mem_ctrls.perBankRdBursts::15           641017                       # Per bank write bursts
system.mem_ctrls.perBankWrBursts::0             75000                       # Per bank write bursts
system.mem_ctrls.perBankWrBursts::1             73983                       # Per bank write bursts
system.mem_ctrls.perBankWrBursts::2             73859                       # Per bank write bursts
system.mem_ctrls.perBankWrBursts::3             78592                       # Per bank write bursts
system.mem_ctrls.perBankWrBursts::4             71592                       # Per bank write bursts
system.mem_ctrls.perBankWrBursts::5             69045                       # Per bank write bursts
system.mem_ctrls.perBankWrBursts::6             71758                       # Per bank write bursts
system.mem_ctrls.perBankWrBursts::7             68709                       # Per bank write bursts
system.mem_ctrls.perBankWrBursts::8             70180                       # Per bank write bursts
system.mem_ctrls.perBankWrBursts::9             68777                       # Per bank write bursts
system.mem_ctrls.perBankWrBursts::10            68909                       # Per bank write bursts
system.mem_ctrls.perBankWrBursts::11            72423                       # Per bank write bursts
system.mem_ctrls.perBankWrBursts::12            74864                       # Per bank write bursts
system.mem_ctrls.perBankWrBursts::13            74792                       # Per bank write bursts
system.mem_ctrls.perBankWrBursts::14            74250                       # Per bank write bursts
system.mem_ctrls.perBankWrBursts::15            74730                       # Per bank write bursts
system.mem_ctrls.numRdRetry                         0                       # Number of times read queue was full causing retry
system.mem_ctrls.numWrRetry                         0                       # Number of times write queue was full causing retry
system.mem_ctrls.totGap                  2148120494500                       # Total gap between requests
system.mem_ctrls.readPktSize::0                     0                       # Read request sizes (log2)
system.mem_ctrls.readPktSize::1                     0                       # Read request sizes (log2)
system.mem_ctrls.readPktSize::2                     0                       # Read request sizes (log2)
system.mem_ctrls.readPktSize::3                     0                       # Read request sizes (log2)
system.mem_ctrls.readPktSize::4                     0                       # Read request sizes (log2)
system.mem_ctrls.readPktSize::5              10092235                       # Read request sizes (log2)
system.mem_ctrls.readPktSize::6                     0                       # Read request sizes (log2)
system.mem_ctrls.writePktSize::0                    0                       # Write request sizes (log2)
system.mem_ctrls.writePktSize::1                    0                       # Write request sizes (log2)
system.mem_ctrls.writePktSize::2                    0                       # Write request sizes (log2)
system.mem_ctrls.writePktSize::3                    0                       # Write request sizes (log2)
system.mem_ctrls.writePktSize::4                    0                       # Write request sizes (log2)
system.mem_ctrls.writePktSize::5              1245026                       # Write request sizes (log2)
system.mem_ctrls.writePktSize::6                    0                       # Write request sizes (log2)
system.mem_ctrls.rdQLenPdf::0                10085096                       # What read queue length does an incoming req see
system.mem_ctrls.rdQLenPdf::1                       0                       # What read queue length does an incoming req see
system.mem_ctrls.rdQLenPdf::2                       0                       # What read queue length does an incoming req see
system.mem_ctrls.rdQLenPdf::3                       0                       # What read queue length does an incoming req see
system.mem_ctrls.rdQLenPdf::4                       0                       # What read queue length does an incoming req see
system.mem_ctrls.rdQLenPdf::5                       0                       # What read queue length does an incoming req see
system.mem_ctrls.rdQLenPdf::6                       0                       # What read queue length does an incoming req see
system.mem_ctrls.rdQLenPdf::7                       0                       # What read queue length does an incoming req see
system.mem_ctrls.rdQLenPdf::8                       0                       # What read queue length does an incoming req see
system.mem_ctrls.rdQLenPdf::9                       0                       # What read queue length does an incoming req see
system.mem_ctrls.rdQLenPdf::10                      0                       # What read queue length does an incoming req see
system.mem_ctrls.rdQLenPdf::11                      0                       # What read queue length does an incoming req see
system.mem_ctrls.rdQLenPdf::12                      0                       # What read queue length does an incoming req see
system.mem_ctrls.rdQLenPdf::13                      0                       # What read queue length does an incoming req see
system.mem_ctrls.rdQLenPdf::14                      0                       # What read queue length does an incoming req see
system.mem_ctrls.rdQLenPdf::15                      0                       # What read queue length does an incoming req see
system.mem_ctrls.rdQLenPdf::16                      0                       # What read queue length does an incoming req see
system.mem_ctrls.rdQLenPdf::17                      0                       # What read queue length does an incoming req see
system.mem_ctrls.rdQLenPdf::18                      0                       # What read queue length does an incoming req see
system.mem_ctrls.rdQLenPdf::19                      0                       # What read queue length does an incoming req see
system.mem_ctrls.rdQLenPdf::20                      0                       # What read queue length does an incoming req see
system.mem_ctrls.rdQLenPdf::21                      0                       # What read queue length does an incoming req see
system.mem_ctrls.rdQLenPdf::22                      0                       # What read queue length does an incoming req see
system.mem_ctrls.rdQLenPdf::23                      0                       # What read queue length does an incoming req see
system.mem_ctrls.rdQLenPdf::24                      0                       # What read queue length does an incoming req see
system.mem_ctrls.rdQLenPdf::25                      0                       # What read queue length does an incoming req see
system.mem_ctrls.rdQLenPdf::26                      0                       # What read queue length does an incoming req see
system.mem_ctrls.rdQLenPdf::27                      0                       # What read queue length does an incoming req see
system.mem_ctrls.rdQLenPdf::28                      0                       # What read queue length does an incoming req see
system.mem_ctrls.rdQLenPdf::29                      0                       # What read queue length does an incoming req see
system.mem_ctrls.rdQLenPdf::30                      0                       # What read queue length does an incoming req see
system.mem_ctrls.rdQLenPdf::31                      0                       # What read queue length does an incoming req see
system.mem_ctrls.wrQLenPdf::0                       1                       # What write queue length does an incoming req see
system.mem_ctrls.wrQLenPdf::1                       1                       # What write queue length does an incoming req see
system.mem_ctrls.wrQLenPdf::2                       1                       # What write queue length does an incoming req see
system.mem_ctrls.wrQLenPdf::3                       1                       # What write queue length does an incoming req see
system.mem_ctrls.wrQLenPdf::4                       1                       # What write queue length does an incoming req see
system.mem_ctrls.wrQLenPdf::5                       1                       # What write queue length does an incoming req see
system.mem_ctrls.wrQLenPdf::6                       1                       # What write queue length does an incoming req see
system.mem_ctrls.wrQLenPdf::7                       1                       # What write queue length does an incoming req see
system.mem_ctrls.wrQLenPdf::8                       1                       # What write queue length does an incoming req see
system.mem_ctrls.wrQLenPdf::9                       1                       # What write queue length does an incoming req see
system.mem_ctrls.wrQLenPdf::10                      1                       # What write queue length does an incoming req see
system.mem_ctrls.wrQLenPdf::11                      1                       # What write queue length does an incoming req see
system.mem_ctrls.wrQLenPdf::12                      1                       # What write queue length does an incoming req see
system.mem_ctrls.wrQLenPdf::13                      1                       # What write queue length does an incoming req see
system.mem_ctrls.wrQLenPdf::14                      1                       # What write queue length does an incoming req see
system.mem_ctrls.wrQLenPdf::15                  18580                       # What write queue length does an incoming req see
system.mem_ctrls.wrQLenPdf::16                  19695                       # What write queue length does an incoming req see
system.mem_ctrls.wrQLenPdf::17                  70187                       # What write queue length does an incoming req see
system.mem_ctrls.wrQLenPdf::18                  70199                       # What write queue length does an incoming req see
system.mem_ctrls.wrQLenPdf::19                  70199                       # What write queue length does an incoming req see
system.mem_ctrls.wrQLenPdf::20                  70199                       # What write queue length does an incoming req see
system.mem_ctrls.wrQLenPdf::21                  70199                       # What write queue length does an incoming req see
system.mem_ctrls.wrQLenPdf::22                  70200                       # What write queue length does an incoming req see
system.mem_ctrls.wrQLenPdf::23                  70201                       # What write queue length does an incoming req see
system.mem_ctrls.wrQLenPdf::24                  70199                       # What write queue length does an incoming req see
system.mem_ctrls.wrQLenPdf::25                  70200                       # What write queue length does an incoming req see
system.mem_ctrls.wrQLenPdf::26                  70199                       # What write queue length does an incoming req see
system.mem_ctrls.wrQLenPdf::27                  70199                       # What write queue length does an incoming req see
system.mem_ctrls.wrQLenPdf::28                  70200                       # What write queue length does an incoming req see
system.mem_ctrls.wrQLenPdf::29                  70207                       # What write queue length does an incoming req see
system.mem_ctrls.wrQLenPdf::30                  70203                       # What write queue length does an incoming req see
system.mem_ctrls.wrQLenPdf::31                  70199                       # What write queue length does an incoming req see
system.mem_ctrls.wrQLenPdf::32                  70199                       # What write queue length does an incoming req see
system.mem_ctrls.wrQLenPdf::33                      0                       # What write queue length does an incoming req see
system.mem_ctrls.wrQLenPdf::34                      0                       # What write queue length does an incoming req see
system.mem_ctrls.wrQLenPdf::35                      0                       # What write queue length does an incoming req see
system.mem_ctrls.wrQLenPdf::36                      0                       # What write queue length does an incoming req see
system.mem_ctrls.wrQLenPdf::37                      0                       # What write queue length does an incoming req see
system.mem_ctrls.wrQLenPdf::38                      0                       # What write queue length does an incoming req see
system.mem_ctrls.wrQLenPdf::39                      0                       # What write queue length does an incoming req see
system.mem_ctrls.wrQLenPdf::40                      0                       # What write queue length does an incoming req see
system.mem_ctrls.wrQLenPdf::41                      0                       # What write queue length does an incoming req see
system.mem_ctrls.wrQLenPdf::42                      0                       # What write queue length does an incoming req see
system.mem_ctrls.wrQLenPdf::43                      0                       # What write queue length does an incoming req see
system.mem_ctrls.wrQLenPdf::44                      0                       # What write queue length does an incoming req see
system.mem_ctrls.wrQLenPdf::45                      0                       # What write queue length does an incoming req see
system.mem_ctrls.wrQLenPdf::46                      0                       # What write queue length does an incoming req see
system.mem_ctrls.wrQLenPdf::47                      0                       # What write queue length does an incoming req see
system.mem_ctrls.wrQLenPdf::48                      0                       # What write queue length does an incoming req see
system.mem_ctrls.wrQLenPdf::49                      0                       # What write queue length does an incoming req see
system.mem_ctrls.wrQLenPdf::50                      0                       # What write queue length does an incoming req see
system.mem_ctrls.wrQLenPdf::51                      0                       # What write queue length does an incoming req see
system.mem_ctrls.wrQLenPdf::52                      0                       # What write queue length does an incoming req see
system.mem_ctrls.wrQLenPdf::53                      0                       # What write queue length does an incoming req see
system.mem_ctrls.wrQLenPdf::54                      0                       # What write queue length does an incoming req see
system.mem_ctrls.wrQLenPdf::55                      0                       # What write queue length does an incoming req see
system.mem_ctrls.wrQLenPdf::56                      0                       # What write queue length does an incoming req see
system.mem_ctrls.wrQLenPdf::57                      0                       # What write queue length does an incoming req see
system.mem_ctrls.wrQLenPdf::58                      0                       # What write queue length does an incoming req see
system.mem_ctrls.wrQLenPdf::59                      0                       # What write queue length does an incoming req see
system.mem_ctrls.wrQLenPdf::60                      0                       # What write queue length does an incoming req see
system.mem_ctrls.wrQLenPdf::61                      0                       # What write queue length does an incoming req see
system.mem_ctrls.wrQLenPdf::62                      0                       # What write queue length does an incoming req see
system.mem_ctrls.wrQLenPdf::63                      0                       # What write queue length does an incoming req see
system.mem_ctrls.bytesPerActivate::samples      5644818                       # Bytes accessed per row activation
system.mem_ctrls.bytesPerActivate::mean    127.511600                       # Bytes accessed per row activation
system.mem_ctrls.bytesPerActivate::gmean   108.968854                       # Bytes accessed per row activation
system.mem_ctrls.bytesPerActivate::stdev   120.761165                       # Bytes accessed per row activation
system.mem_ctrls.bytesPerActivate::0-127      1831560     32.45%     32.45% # Bytes accessed per row activation
system.mem_ctrls.bytesPerActivate::128-255      3588390     63.57%     96.02% # Bytes accessed per row activation
system.mem_ctrls.bytesPerActivate::256-383        83215      1.47%     97.49% # Bytes accessed per row activation
system.mem_ctrls.bytesPerActivate::384-511        27288      0.48%     97.97% # Bytes accessed per row activation
system.mem_ctrls.bytesPerActivate::512-639        15547      0.28%     98.25% # Bytes accessed per row activation
system.mem_ctrls.bytesPerActivate::640-767        12364      0.22%     98.47% # Bytes accessed per row activation
system.mem_ctrls.bytesPerActivate::768-895        10585      0.19%     98.66% # Bytes accessed per row activation
system.mem_ctrls.bytesPerActivate::896-1023         9816      0.17%     98.83% # Bytes accessed per row activation
system.mem_ctrls.bytesPerActivate::1024-1151        66053      1.17%    100.00% # Bytes accessed per row activation
system.mem_ctrls.bytesPerActivate::total      5644818                       # Bytes accessed per row activation
system.mem_ctrls.rdPerTurnAround::samples        70199                       # Reads before turning the bus around for writes
system.mem_ctrls.rdPerTurnAround::mean     143.664183                       # Reads before turning the bus around for writes
system.mem_ctrls.rdPerTurnAround::gmean     77.016775                       # Reads before turning the bus around for writes
system.mem_ctrls.rdPerTurnAround::stdev    183.657552                       # Reads before turning the bus around for writes
system.mem_ctrls.rdPerTurnAround::0-511         65262     92.97%     92.97% # Reads before turning the bus around for writes
system.mem_ctrls.rdPerTurnAround::512-1023         4760      6.78%     99.75% # Reads before turning the bus around for writes
system.mem_ctrls.rdPerTurnAround::1024-1535          136      0.19%     99.94% # Reads before turning the bus around for writes
system.mem_ctrls.rdPerTurnAround::1536-2047           29      0.04%     99.98% # Reads before turning the bus around for writes
system.mem_ctrls.rdPerTurnAround::2048-2559            6      0.01%     99.99% # Reads before turning the bus around for writes
system.mem_ctrls.rdPerTurnAround::2560-3071            4      0.01%    100.00% # Reads before turning the bus around for writes
system.mem_ctrls.rdPerTurnAround::3072-3583            1      0.00%    100.00% # Reads before turning the bus around for writes
system.mem_ctrls.rdPerTurnAround::11264-11775            1      0.00%    100.00% # Reads before turning the bus around for writes
system.mem_ctrls.rdPerTurnAround::total         70199                       # Reads before turning the bus around for writes
system.mem_ctrls.wrPerTurnAround::samples        70199                       # Writes before turning the bus around for reads
system.mem_ctrls.wrPerTurnAround::mean      16.545293                       # Writes before turning the bus around for reads
system.mem_ctrls.wrPerTurnAround::gmean     16.522598                       # Writes before turning the bus around for reads
system.mem_ctrls.wrPerTurnAround::stdev      0.881798                       # Writes before turning the bus around for reads
system.mem_ctrls.wrPerTurnAround::16            50504     71.94%     71.94% # Writes before turning the bus around for reads
system.mem_ctrls.wrPerTurnAround::17             1116      1.59%     73.53% # Writes before turning the bus around for reads
system.mem_ctrls.wrPerTurnAround::18            18574     26.46%     99.99% # Writes before turning the bus around for reads
system.mem_ctrls.wrPerTurnAround::19                5      0.01%    100.00% # Writes before turning the bus around for reads
system.mem_ctrls.wrPerTurnAround::total         70199                       # Writes before turning the bus around for reads
system.mem_ctrls.totQLat                 236084059250                       # Total ticks spent queuing
system.mem_ctrls.totMemAccLat            425179609250                       # Total ticks spent from burst creation until serviced by the DRAM
system.mem_ctrls.totBusLat                50425480000                       # Total ticks spent in databus transfers
system.mem_ctrls.avgQLat                     23409.20                       # Average queueing delay per DRAM burst
system.mem_ctrls.avgBusLat                    5000.00                       # Average bus latency per DRAM burst
system.mem_ctrls.avgMemAccLat                42159.20                       # Average memory access latency per DRAM burst
system.mem_ctrls.avgRdBW                       300.47                       # Average DRAM read bandwidth in MiByte/s
system.mem_ctrls.avgWrBW                        34.60                       # Average achieved write bandwidth in MiByte/s
system.mem_ctrls.avgRdBWSys                    150.34                       # Average system read bandwidth in MiByte/s
system.mem_ctrls.avgWrBWSys                     18.55                       # Average system write bandwidth in MiByte/s
system.mem_ctrls.peakBW                      12800.00                       # Theoretical peak bandwidth in MiByte/s
system.mem_ctrls.busUtil                         2.62                       # Data bus utilization in percentage
system.mem_ctrls.busUtilRead                     2.35                       # Data bus utilization in percentage for reads
system.mem_ctrls.busUtilWrite                    0.27                       # Data bus utilization in percentage for writes
system.mem_ctrls.avgRdQLen                       1.00                       # Average read queue length when enqueuing
system.mem_ctrls.avgWrQLen                      25.11                       # Average write queue length when enqueuing
system.mem_ctrls.readRowHits                  5051482                       # Number of row buffer hits during reads
system.mem_ctrls.writeRowHits                  550259                       # Number of row buffer hits during writes
system.mem_ctrls.readRowHitRate                 50.09                       # Row buffer hit rate for reads
system.mem_ctrls.writeRowHitRate                47.38                       # Row buffer hit rate for writes
system.mem_ctrls.avgGap                     189474.38                       # Average gap between requests
system.mem_ctrls.pageHitRate                    49.81                       # Row buffer hit rate, read and write combined
system.mem_ctrls_0.actEnergy              20074895400                       # Energy for activate commands per rank (pJ)
system.mem_ctrls_0.preEnergy              10670059950                       # Energy for precharge commands per rank (pJ)
system.mem_ctrls_0.readEnergy             35891687580                       # Energy for read commands per rank (pJ)
system.mem_ctrls_0.writeEnergy             3040848360                       # Energy for write commands per rank (pJ)
system.mem_ctrls_0.refreshEnergy         158664398880.000031                       # Energy for refresh commands per rank (pJ)
system.mem_ctrls_0.actBackEnergy         125709323610                       # Energy for active background per rank (pJ)
system.mem_ctrls_0.preBackEnergy           5106022560                       # Energy for precharge background per rank (pJ)
system.mem_ctrls_0.actPowerDownEnergy    613960946190                       # Energy for active power-down per rank (pJ)
system.mem_ctrls_0.prePowerDownEnergy     96405031200                       # Energy for precharge power-down per rank (pJ)
system.mem_ctrls_0.selfRefreshEnergy      72222494010                       # Energy for self refresh per rank (pJ)
system.mem_ctrls_0.totalEnergy           1141765409430                       # Total energy per rank (pJ)
system.mem_ctrls_0.averagePower            531.513851                       # Core power per rank (mW)
system.mem_ctrls_0.totalIdleTime         1859118186250                       # Total Idle time Per DRAM Rank
system.mem_ctrls_0.memoryStateTime::IDLE   5930063000                       # Time in different power states
system.mem_ctrls_0.memoryStateTime::REF   67223030000                       # Time in different power states
system.mem_ctrls_0.memoryStateTime::SREF 261659163750                       # Time in different power states
system.mem_ctrls_0.memoryStateTime::PRE_PDN 251056368250                       # Time in different power states
system.mem_ctrls_0.memoryStateTime::ACT  215862119500                       # Time in different power states
system.mem_ctrls_0.memoryStateTime::ACT_PDN 1346407825000                       # Time in different power states
system.mem_ctrls_1.actEnergy              20229105120                       # Energy for activate commands per rank (pJ)
system.mem_ctrls_1.preEnergy              10752024360                       # Energy for precharge commands per rank (pJ)
system.mem_ctrls_1.readEnergy             36115897860                       # Energy for read commands per rank (pJ)
system.mem_ctrls_1.writeEnergy             3021988500                       # Energy for write commands per rank (pJ)
system.mem_ctrls_1.refreshEnergy         159063914880.000031                       # Energy for refresh commands per rank (pJ)
system.mem_ctrls_1.actBackEnergy         126197064630                       # Energy for active background per rank (pJ)
system.mem_ctrls_1.preBackEnergy           5308008480                       # Energy for precharge background per rank (pJ)
system.mem_ctrls_1.actPowerDownEnergy    612364005690                       # Energy for active power-down per rank (pJ)
system.mem_ctrls_1.prePowerDownEnergy     97267103520                       # Energy for precharge power-down per rank (pJ)
system.mem_ctrls_1.selfRefreshEnergy      72502246560                       # Energy for self refresh per rank (pJ)
system.mem_ctrls_1.totalEnergy           1142845400910                       # Total energy per rank (pJ)
system.mem_ctrls_1.averagePower            532.016609                       # Core power per rank (mW)
system.mem_ctrls_1.totalIdleTime         1857509572500                       # Total Idle time Per DRAM Rank
system.mem_ctrls_1.memoryStateTime::IDLE   6103879250                       # Time in different power states
system.mem_ctrls_1.memoryStateTime::REF   67396122000                       # Time in different power states
system.mem_ctrls_1.memoryStateTime::SREF 261310762500                       # Time in different power states
system.mem_ctrls_1.memoryStateTime::PRE_PDN 253300502250                       # Time in different power states
system.mem_ctrls_1.memoryStateTime::ACT  217126037750                       # Time in different power states
system.mem_ctrls_1.memoryStateTime::ACT_PDN 1342901265750                       # Time in different power states
system.pwrStateResidencyTicks::UNDEFINED 2148138569500                       # Cumulative time (in ticks) in various power states
system.cpu_voltage_domain.voltage                   1                       # Voltage in Volts
system.cpu_clk_domain.clock                       500                       # Clock period in ticks
system.cpu.dtb.walker.pwrStateResidencyTicks::UNDEFINED 2148138569500                       # Cumulative time (in ticks) in various power states
system.cpu.apic_clk_domain.clock                 8000                       # Clock period in ticks
system.cpu.interrupts.pwrStateResidencyTicks::UNDEFINED 2148138569500                       # Cumulative time (in ticks) in various power states
system.cpu.itb.walker.pwrStateResidencyTicks::UNDEFINED 2148138569500                       # Cumulative time (in ticks) in various power states
system.cpu.workload.num_syscalls                  168                       # Number of system calls
system.cpu.pwrStateResidencyTicks::ON    2148138569500                       # Cumulative time (in ticks) in various power states
system.cpu.numCycles                       4296277139                       # number of cpu cycles simulated
system.cpu.numWorkItemsStarted                      0                       # number of work items this cpu started
system.cpu.numWorkItemsCompleted                    0                       # number of work items this cpu completed
system.cpu.committedInsts                   500000000                       # Number of instructions committed
system.cpu.committedOps                     876313784                       # Number of ops (including micro ops) committed
system.cpu.num_int_alu_accesses             872966681                       # Number of integer alu accesses
system.cpu.num_fp_alu_accesses                2882231                       # Number of float alu accesses
system.cpu.num_func_calls                    11025254                       # number of times a function call or return occured
system.cpu.num_conditional_control_insts     75981009                       # number of instructions that are conditional controls
system.cpu.num_int_insts                    872966681                       # number of integer instructions
system.cpu.num_fp_insts                       2882231                       # number of float instructions
system.cpu.num_int_register_reads          1835046955                       # number of times the integer registers were read
system.cpu.num_int_register_writes          703076420                       # number of times the integer registers were written
system.cpu.num_fp_register_reads              4386063                       # number of times the floating registers were read
system.cpu.num_fp_register_writes             2464405                       # number of times the floating registers were written
system.cpu.num_cc_register_reads            441654669                       # number of times the CC registers were read
system.cpu.num_cc_register_writes           253505516                       # number of times the CC registers were written
system.cpu.num_mem_refs                     293763597                       # number of memory refs
system.cpu.num_load_insts                   221285041                       # Number of load instructions
system.cpu.num_store_insts                   72478556                       # Number of store instructions
system.cpu.num_idle_cycles                          0                       # Number of idle cycles
system.cpu.num_busy_cycles                 4296277139                       # Number of busy cycles
system.cpu.not_idle_fraction                        1                       # Percentage of non-idle cycles
system.cpu.idle_fraction                            0                       # Percentage of idle cycles
system.cpu.Branches                          97901001                       # Number of branches fetched
system.cpu.op_class::No_OpClass                939429      0.11%      0.11% # Class of executed instruction
system.cpu.op_class::IntAlu                 578420257     66.01%     66.11% # Class of executed instruction
system.cpu.op_class::IntMult                   907073      0.10%     66.22% # Class of executed instruction
system.cpu.op_class::IntDiv                        42      0.00%     66.22% # Class of executed instruction
system.cpu.op_class::FloatAdd                 2283386      0.26%     66.48% # Class of executed instruction
system.cpu.op_class::FloatCmp                       0      0.00%     66.48% # Class of executed instruction
system.cpu.op_class::FloatCvt                       0      0.00%     66.48% # Class of executed instruction
system.cpu.op_class::FloatMult                      0      0.00%     66.48% # Class of executed instruction
system.cpu.op_class::FloatDiv                       0      0.00%     66.48% # Class of executed instruction
system.cpu.op_class::FloatSqrt                      0      0.00%     66.48% # Class of executed instruction
system.cpu.op_class::SimdAdd                        0      0.00%     66.48% # Class of executed instruction
system.cpu.op_class::SimdAddAcc                     0      0.00%     66.48% # Class of executed instruction
system.cpu.op_class::SimdAlu                        0      0.00%     66.48% # Class of executed instruction
system.cpu.op_class::SimdCmp                        0      0.00%     66.48% # Class of executed instruction
system.cpu.op_class::SimdCvt                        0      0.00%     66.48% # Class of executed instruction
system.cpu.op_class::SimdMisc                       0      0.00%     66.48% # Class of executed instruction
system.cpu.op_class::SimdMult                       0      0.00%     66.48% # Class of executed instruction
system.cpu.op_class::SimdMultAcc                    0      0.00%     66.48% # Class of executed instruction
system.cpu.op_class::SimdShift                      0      0.00%     66.48% # Class of executed instruction
system.cpu.op_class::SimdShiftAcc                   0      0.00%     66.48% # Class of executed instruction
system.cpu.op_class::SimdSqrt                       0      0.00%     66.48% # Class of executed instruction
system.cpu.op_class::SimdFloatAdd                   0      0.00%     66.48% # Class of executed instruction
system.cpu.op_class::SimdFloatAlu                   0      0.00%     66.48% # Class of executed instruction
system.cpu.op_class::SimdFloatCmp                   0      0.00%     66.48% # Class of executed instruction
system.cpu.op_class::SimdFloatCvt                   0      0.00%     66.48% # Class of executed instruction
system.cpu.op_class::SimdFloatDiv                   0      0.00%     66.48% # Class of executed instruction
system.cpu.op_class::SimdFloatMisc                  0      0.00%     66.48% # Class of executed instruction
system.cpu.op_class::SimdFloatMult                  0      0.00%     66.48% # Class of executed instruction
system.cpu.op_class::SimdFloatMultAcc               0      0.00%     66.48% # Class of executed instruction
system.cpu.op_class::SimdFloatSqrt                  0      0.00%     66.48% # Class of executed instruction
system.cpu.op_class::MemRead                221285041     25.25%     91.73% # Class of executed instruction
system.cpu.op_class::MemWrite                72478556      8.27%    100.00% # Class of executed instruction
system.cpu.op_class::IprAccess                      0      0.00%    100.00% # Class of executed instruction
system.cpu.op_class::InstPrefetch                   0      0.00%    100.00% # Class of executed instruction
system.cpu.op_class::total                  876313784                       # Class of executed instruction
system.cpu.dcache.tags.pwrStateResidencyTicks::UNDEFINED 2148138569500                       # Cumulative time (in ticks) in various power states
system.cpu.dcache.tags.replacements          20914815                       # number of replacements
system.cpu.dcache.tags.tagsinuse          1023.844839                       # Cycle average of tags in use
system.cpu.dcache.tags.total_refs           272896009                       # Total number of references to valid blocks.
system.cpu.dcache.tags.sampled_refs          20915839                       # Sample count of references to valid blocks.
system.cpu.dcache.tags.avg_refs             13.047337                       # Average number of references to valid blocks.
system.cpu.dcache.tags.warmup_cycle         933811500                       # Cycle when the warmup percentage was hit.
system.cpu.dcache.tags.occ_blocks::cpu.data  1023.844839                       # Average occupied blocks per requestor
system.cpu.dcache.tags.occ_percent::cpu.data     0.999848                       # Average percentage of cache occupancy
system.cpu.dcache.tags.occ_percent::total     0.999848                       # Average percentage of cache occupancy
system.cpu.dcache.tags.occ_task_id_blocks::1024         1024                       # Occupied blocks per task id
system.cpu.dcache.tags.age_task_id_blocks_1024::0            9                       # Occupied blocks per task id
system.cpu.dcache.tags.age_task_id_blocks_1024::1          660                       # Occupied blocks per task id
system.cpu.dcache.tags.age_task_id_blocks_1024::2          355                       # Occupied blocks per task id
system.cpu.dcache.tags.occ_task_id_percent::1024            1                       # Percentage of cache occupancy per task id
system.cpu.dcache.tags.tag_accesses         314727687                       # Number of tag accesses
system.cpu.dcache.tags.data_accesses        314727687                       # Number of data accesses
system.cpu.dcache.pwrStateResidencyTicks::UNDEFINED 2148138569500                       # Cumulative time (in ticks) in various power states
system.cpu.dcache.ReadReq_hits::cpu.data    201939646                       # number of ReadReq hits
system.cpu.dcache.ReadReq_hits::total       201939646                       # number of ReadReq hits
system.cpu.dcache.WriteReq_hits::cpu.data     70956363                       # number of WriteReq hits
system.cpu.dcache.WriteReq_hits::total       70956363                       # number of WriteReq hits
system.cpu.dcache.demand_hits::cpu.data     272896009                       # number of demand (read+write) hits
system.cpu.dcache.demand_hits::total        272896009                       # number of demand (read+write) hits
system.cpu.dcache.overall_hits::cpu.data    272896009                       # number of overall hits
system.cpu.dcache.overall_hits::total       272896009                       # number of overall hits
system.cpu.dcache.ReadReq_misses::cpu.data     19393643                       # number of ReadReq misses
system.cpu.dcache.ReadReq_misses::total      19393643                       # number of ReadReq misses
system.cpu.dcache.WriteReq_misses::cpu.data      1522196                       # number of WriteReq misses
system.cpu.dcache.WriteReq_misses::total      1522196                       # number of WriteReq misses
system.cpu.dcache.demand_misses::cpu.data     20915839                       # number of demand (read+write) misses
system.cpu.dcache.demand_misses::total       20915839                       # number of demand (read+write) misses
system.cpu.dcache.overall_misses::cpu.data     20915839                       # number of overall misses
system.cpu.dcache.overall_misses::total      20915839                       # number of overall misses
system.cpu.dcache.ReadReq_miss_latency::cpu.data 1050890240000                       # number of ReadReq miss cycles
system.cpu.dcache.ReadReq_miss_latency::total 1050890240000                       # number of ReadReq miss cycles
system.cpu.dcache.WriteReq_miss_latency::cpu.data  54254538000                       # number of WriteReq miss cycles
system.cpu.dcache.WriteReq_miss_latency::total  54254538000                       # number of WriteReq miss cycles
system.cpu.dcache.demand_miss_latency::cpu.data 1105144778000                       # number of demand (read+write) miss cycles
system.cpu.dcache.demand_miss_latency::total 1105144778000                       # number of demand (read+write) miss cycles
system.cpu.dcache.overall_miss_latency::cpu.data 1105144778000                       # number of overall miss cycles
system.cpu.dcache.overall_miss_latency::total 1105144778000                       # number of overall miss cycles
system.cpu.dcache.ReadReq_accesses::cpu.data    221333289                       # number of ReadReq accesses(hits+misses)
system.cpu.dcache.ReadReq_accesses::total    221333289                       # number of ReadReq accesses(hits+misses)
system.cpu.dcache.WriteReq_accesses::cpu.data     72478559                       # number of WriteReq accesses(hits+misses)
system.cpu.dcache.WriteReq_accesses::total     72478559                       # number of WriteReq accesses(hits+misses)
system.cpu.dcache.demand_accesses::cpu.data    293811848                       # number of demand (read+write) accesses
system.cpu.dcache.demand_accesses::total    293811848                       # number of demand (read+write) accesses
system.cpu.dcache.overall_accesses::cpu.data    293811848                       # number of overall (read+write) accesses
system.cpu.dcache.overall_accesses::total    293811848                       # number of overall (read+write) accesses
system.cpu.dcache.ReadReq_miss_rate::cpu.data     0.087622                       # miss rate for ReadReq accesses
system.cpu.dcache.ReadReq_miss_rate::total     0.087622                       # miss rate for ReadReq accesses
system.cpu.dcache.WriteReq_miss_rate::cpu.data     0.021002                       # miss rate for WriteReq accesses
system.cpu.dcache.WriteReq_miss_rate::total     0.021002                       # miss rate for WriteReq accesses
system.cpu.dcache.demand_miss_rate::cpu.data     0.071188                       # miss rate for demand accesses
system.cpu.dcache.demand_miss_rate::total     0.071188                       # miss rate for demand accesses
system.cpu.dcache.overall_miss_rate::cpu.data     0.071188                       # miss rate for overall accesses
system.cpu.dcache.overall_miss_rate::total     0.071188                       # miss rate for overall accesses
system.cpu.dcache.ReadReq_avg_miss_latency::cpu.data 54187.356135                       # average ReadReq miss latency
system.cpu.dcache.ReadReq_avg_miss_latency::total 54187.356135                       # average ReadReq miss latency
system.cpu.dcache.WriteReq_avg_miss_latency::cpu.data 35642.281283                       # average WriteReq miss latency
system.cpu.dcache.WriteReq_avg_miss_latency::total 35642.281283                       # average WriteReq miss latency
system.cpu.dcache.demand_avg_miss_latency::cpu.data 52837.697689                       # average overall miss latency
system.cpu.dcache.demand_avg_miss_latency::total 52837.697689                       # average overall miss latency
system.cpu.dcache.overall_avg_miss_latency::cpu.data 52837.697689                       # average overall miss latency
system.cpu.dcache.overall_avg_miss_latency::total 52837.697689                       # average overall miss latency
system.cpu.dcache.blocked_cycles::no_mshrs            0                       # number of cycles access was blocked
system.cpu.dcache.blocked_cycles::no_targets            0                       # number of cycles access was blocked
system.cpu.dcache.blocked::no_mshrs                 0                       # number of cycles access was blocked
system.cpu.dcache.blocked::no_targets               0                       # number of cycles access was blocked
system.cpu.dcache.avg_blocked_cycles::no_mshrs          nan                       # average number of cycles each access was blocked
system.cpu.dcache.avg_blocked_cycles::no_targets          nan                       # average number of cycles each access was blocked
system.cpu.dcache.writebacks::writebacks      6531155                       # number of writebacks
system.cpu.dcache.writebacks::total           6531155                       # number of writebacks
system.cpu.dcache.ReadReq_mshr_misses::cpu.data     19393643                       # number of ReadReq MSHR misses
system.cpu.dcache.ReadReq_mshr_misses::total     19393643                       # number of ReadReq MSHR misses
system.cpu.dcache.WriteReq_mshr_misses::cpu.data      1522196                       # number of WriteReq MSHR misses
system.cpu.dcache.WriteReq_mshr_misses::total      1522196                       # number of WriteReq MSHR misses
system.cpu.dcache.demand_mshr_misses::cpu.data     20915839                       # number of demand (read+write) MSHR misses
system.cpu.dcache.demand_mshr_misses::total     20915839                       # number of demand (read+write) MSHR misses
system.cpu.dcache.overall_mshr_misses::cpu.data     20915839                       # number of overall MSHR misses
system.cpu.dcache.overall_mshr_misses::total     20915839                       # number of overall MSHR misses
system.cpu.dcache.ReadReq_mshr_miss_latency::cpu.data 1031496597000                       # number of ReadReq MSHR miss cycles
system.cpu.dcache.ReadReq_mshr_miss_latency::total 1031496597000                       # number of ReadReq MSHR miss cycles
system.cpu.dcache.WriteReq_mshr_miss_latency::cpu.data  52732342000                       # number of WriteReq MSHR miss cycles
system.cpu.dcache.WriteReq_mshr_miss_latency::total  52732342000                       # number of WriteReq MSHR miss cycles
system.cpu.dcache.demand_mshr_miss_latency::cpu.data 1084228939000                       # number of demand (read+write) MSHR miss cycles
system.cpu.dcache.demand_mshr_miss_latency::total 1084228939000                       # number of demand (read+write) MSHR miss cycles
system.cpu.dcache.overall_mshr_miss_latency::cpu.data 1084228939000                       # number of overall MSHR miss cycles
system.cpu.dcache.overall_mshr_miss_latency::total 1084228939000                       # number of overall MSHR miss cycles
system.cpu.dcache.ReadReq_mshr_miss_rate::cpu.data     0.087622                       # mshr miss rate for ReadReq accesses
system.cpu.dcache.ReadReq_mshr_miss_rate::total     0.087622                       # mshr miss rate for ReadReq accesses
system.cpu.dcache.WriteReq_mshr_miss_rate::cpu.data     0.021002                       # mshr miss rate for WriteReq accesses
system.cpu.dcache.WriteReq_mshr_miss_rate::total     0.021002                       # mshr miss rate for WriteReq accesses
system.cpu.dcache.demand_mshr_miss_rate::cpu.data     0.071188                       # mshr miss rate for demand accesses
system.cpu.dcache.demand_mshr_miss_rate::total     0.071188                       # mshr miss rate for demand accesses
system.cpu.dcache.overall_mshr_miss_rate::cpu.data     0.071188                       # mshr miss rate for overall accesses
system.cpu.dcache.overall_mshr_miss_rate::total     0.071188                       # mshr miss rate for overall accesses
system.cpu.dcache.ReadReq_avg_mshr_miss_latency::cpu.data 53187.356135                       # average ReadReq mshr miss latency
system.cpu.dcache.ReadReq_avg_mshr_miss_latency::total 53187.356135                       # average ReadReq mshr miss latency
system.cpu.dcache.WriteReq_avg_mshr_miss_latency::cpu.data 34642.281283                       # average WriteReq mshr miss latency
system.cpu.dcache.WriteReq_avg_mshr_miss_latency::total 34642.281283                       # average WriteReq mshr miss latency
system.cpu.dcache.demand_avg_mshr_miss_latency::cpu.data 51837.697689                       # average overall mshr miss latency
system.cpu.dcache.demand_avg_mshr_miss_latency::total 51837.697689                       # average overall mshr miss latency
system.cpu.dcache.overall_avg_mshr_miss_latency::cpu.data 51837.697689                       # average overall mshr miss latency
system.cpu.dcache.overall_avg_mshr_miss_latency::total 51837.697689                       # average overall mshr miss latency
system.cpu.dtb_walker_cache.tags.pwrStateResidencyTicks::UNDEFINED 2148138569500                       # Cumulative time (in ticks) in various power states
system.cpu.dtb_walker_cache.tags.replacements            0                       # number of replacements
system.cpu.dtb_walker_cache.tags.tagsinuse            0                       # Cycle average of tags in use
system.cpu.dtb_walker_cache.tags.total_refs            0                       # Total number of references to valid blocks.
system.cpu.dtb_walker_cache.tags.sampled_refs            0                       # Sample count of references to valid blocks.
system.cpu.dtb_walker_cache.tags.avg_refs          nan                       # Average number of references to valid blocks.
system.cpu.dtb_walker_cache.tags.warmup_cycle            0                       # Cycle when the warmup percentage was hit.
system.cpu.dtb_walker_cache.tags.tag_accesses            0                       # Number of tag accesses
system.cpu.dtb_walker_cache.tags.data_accesses            0                       # Number of data accesses
system.cpu.dtb_walker_cache.pwrStateResidencyTicks::UNDEFINED 2148138569500                       # Cumulative time (in ticks) in various power states
system.cpu.dtb_walker_cache.blocked_cycles::no_mshrs            0                       # number of cycles access was blocked
system.cpu.dtb_walker_cache.blocked_cycles::no_targets            0                       # number of cycles access was blocked
system.cpu.dtb_walker_cache.blocked::no_mshrs            0                       # number of cycles access was blocked
system.cpu.dtb_walker_cache.blocked::no_targets            0                       # number of cycles access was blocked
system.cpu.dtb_walker_cache.avg_blocked_cycles::no_mshrs          nan                       # average number of cycles each access was blocked
system.cpu.dtb_walker_cache.avg_blocked_cycles::no_targets          nan                       # average number of cycles each access was blocked
system.cpu.icache.tags.pwrStateResidencyTicks::UNDEFINED 2148138569500                       # Cumulative time (in ticks) in various power states
system.cpu.icache.tags.replacements           7727590                       # number of replacements
system.cpu.icache.tags.tagsinuse           254.780346                       # Cycle average of tags in use
system.cpu.icache.tags.total_refs           669590098                       # Total number of references to valid blocks.
system.cpu.icache.tags.sampled_refs           7727845                       # Sample count of references to valid blocks.
system.cpu.icache.tags.avg_refs             86.646419                       # Average number of references to valid blocks.
system.cpu.icache.tags.warmup_cycle                 0                       # Cycle when the warmup percentage was hit.
system.cpu.icache.tags.occ_blocks::cpu.inst   254.780346                       # Average occupied blocks per requestor
system.cpu.icache.tags.occ_percent::cpu.inst     0.995236                       # Average percentage of cache occupancy
system.cpu.icache.tags.occ_percent::total     0.995236                       # Average percentage of cache occupancy
system.cpu.icache.tags.occ_task_id_blocks::1024          255                       # Occupied blocks per task id
system.cpu.icache.tags.age_task_id_blocks_1024::4          255                       # Occupied blocks per task id
system.cpu.icache.tags.occ_task_id_percent::1024     0.996094                       # Percentage of cache occupancy per task id
system.cpu.icache.tags.tag_accesses         685045788                       # Number of tag accesses
system.cpu.icache.tags.data_accesses        685045788                       # Number of data accesses
system.cpu.icache.pwrStateResidencyTicks::UNDEFINED 2148138569500                       # Cumulative time (in ticks) in various power states
system.cpu.icache.ReadReq_hits::cpu.inst    669590098                       # number of ReadReq hits
system.cpu.icache.ReadReq_hits::total       669590098                       # number of ReadReq hits
system.cpu.icache.demand_hits::cpu.inst     669590098                       # number of demand (read+write) hits
system.cpu.icache.demand_hits::total        669590098                       # number of demand (read+write) hits
system.cpu.icache.overall_hits::cpu.inst    669590098                       # number of overall hits
system.cpu.icache.overall_hits::total       669590098                       # number of overall hits
system.cpu.icache.ReadReq_misses::cpu.inst      7727845                       # number of ReadReq misses
system.cpu.icache.ReadReq_misses::total       7727845                       # number of ReadReq misses
system.cpu.icache.demand_misses::cpu.inst      7727845                       # number of demand (read+write) misses
system.cpu.icache.demand_misses::total        7727845                       # number of demand (read+write) misses
system.cpu.icache.overall_misses::cpu.inst      7727845                       # number of overall misses
system.cpu.icache.overall_misses::total       7727845                       # number of overall misses
system.cpu.icache.ReadReq_miss_latency::cpu.inst 100557678500                       # number of ReadReq miss cycles
system.cpu.icache.ReadReq_miss_latency::total 100557678500                       # number of ReadReq miss cycles
system.cpu.icache.demand_miss_latency::cpu.inst 100557678500                       # number of demand (read+write) miss cycles
system.cpu.icache.demand_miss_latency::total 100557678500                       # number of demand (read+write) miss cycles
system.cpu.icache.overall_miss_latency::cpu.inst 100557678500                       # number of overall miss cycles
system.cpu.icache.overall_miss_latency::total 100557678500                       # number of overall miss cycles
system.cpu.icache.ReadReq_accesses::cpu.inst    677317943                       # number of ReadReq accesses(hits+misses)
system.cpu.icache.ReadReq_accesses::total    677317943                       # number of ReadReq accesses(hits+misses)
system.cpu.icache.demand_accesses::cpu.inst    677317943                       # number of demand (read+write) accesses
system.cpu.icache.demand_accesses::total    677317943                       # number of demand (read+write) accesses
system.cpu.icache.overall_accesses::cpu.inst    677317943                       # number of overall (read+write) accesses
system.cpu.icache.overall_accesses::total    677317943                       # number of overall (read+write) accesses
system.cpu.icache.ReadReq_miss_rate::cpu.inst     0.011409                       # miss rate for ReadReq accesses
system.cpu.icache.ReadReq_miss_rate::total     0.011409                       # miss rate for ReadReq accesses
system.cpu.icache.demand_miss_rate::cpu.inst     0.011409                       # miss rate for demand accesses
system.cpu.icache.demand_miss_rate::total     0.011409                       # miss rate for demand accesses
system.cpu.icache.overall_miss_rate::cpu.inst     0.011409                       # miss rate for overall accesses
system.cpu.icache.overall_miss_rate::total     0.011409                       # miss rate for overall accesses
system.cpu.icache.ReadReq_avg_miss_latency::cpu.inst 13012.382948                       # average ReadReq miss latency
system.cpu.icache.ReadReq_avg_miss_latency::total 13012.382948                       # average ReadReq miss latency
system.cpu.icache.demand_avg_miss_latency::cpu.inst 13012.382948                       # average overall miss latency
system.cpu.icache.demand_avg_miss_latency::total 13012.382948                       # average overall miss latency
system.cpu.icache.overall_avg_miss_latency::cpu.inst 13012.382948                       # average overall miss latency
system.cpu.icache.overall_avg_miss_latency::total 13012.382948                       # average overall miss latency
system.cpu.icache.blocked_cycles::no_mshrs            0                       # number of cycles access was blocked
system.cpu.icache.blocked_cycles::no_targets            0                       # number of cycles access was blocked
system.cpu.icache.blocked::no_mshrs                 0                       # number of cycles access was blocked
system.cpu.icache.blocked::no_targets               0                       # number of cycles access was blocked
system.cpu.icache.avg_blocked_cycles::no_mshrs          nan                       # average number of cycles each access was blocked
system.cpu.icache.avg_blocked_cycles::no_targets          nan                       # average number of cycles each access was blocked
system.cpu.icache.writebacks::writebacks      7727590                       # number of writebacks
system.cpu.icache.writebacks::total           7727590                       # number of writebacks
system.cpu.icache.ReadReq_mshr_misses::cpu.inst      7727845                       # number of ReadReq MSHR misses
system.cpu.icache.ReadReq_mshr_misses::total      7727845                       # number of ReadReq MSHR misses
system.cpu.icache.demand_mshr_misses::cpu.inst      7727845                       # number of demand (read+write) MSHR misses
system.cpu.icache.demand_mshr_misses::total      7727845                       # number of demand (read+write) MSHR misses
system.cpu.icache.overall_mshr_misses::cpu.inst      7727845                       # number of overall MSHR misses
system.cpu.icache.overall_mshr_misses::total      7727845                       # number of overall MSHR misses
system.cpu.icache.ReadReq_mshr_miss_latency::cpu.inst  92829833500                       # number of ReadReq MSHR miss cycles
system.cpu.icache.ReadReq_mshr_miss_latency::total  92829833500                       # number of ReadReq MSHR miss cycles
system.cpu.icache.demand_mshr_miss_latency::cpu.inst  92829833500                       # number of demand (read+write) MSHR miss cycles
system.cpu.icache.demand_mshr_miss_latency::total  92829833500                       # number of demand (read+write) MSHR miss cycles
system.cpu.icache.overall_mshr_miss_latency::cpu.inst  92829833500                       # number of overall MSHR miss cycles
system.cpu.icache.overall_mshr_miss_latency::total  92829833500                       # number of overall MSHR miss cycles
system.cpu.icache.ReadReq_mshr_miss_rate::cpu.inst     0.011409                       # mshr miss rate for ReadReq accesses
system.cpu.icache.ReadReq_mshr_miss_rate::total     0.011409                       # mshr miss rate for ReadReq accesses
system.cpu.icache.demand_mshr_miss_rate::cpu.inst     0.011409                       # mshr miss rate for demand accesses
system.cpu.icache.demand_mshr_miss_rate::total     0.011409                       # mshr miss rate for demand accesses
system.cpu.icache.overall_mshr_miss_rate::cpu.inst     0.011409                       # mshr miss rate for overall accesses
system.cpu.icache.overall_mshr_miss_rate::total     0.011409                       # mshr miss rate for overall accesses
system.cpu.icache.ReadReq_avg_mshr_miss_latency::cpu.inst 12012.382948                       # average ReadReq mshr miss latency
system.cpu.icache.ReadReq_avg_mshr_miss_latency::total 12012.382948                       # average ReadReq mshr miss latency
system.cpu.icache.demand_avg_mshr_miss_latency::cpu.inst 12012.382948                       # average overall mshr miss latency
system.cpu.icache.demand_avg_mshr_miss_latency::total 12012.382948                       # average overall mshr miss latency
system.cpu.icache.overall_avg_mshr_miss_latency::cpu.inst 12012.382948                       # average overall mshr miss latency
system.cpu.icache.overall_avg_mshr_miss_latency::total 12012.382948                       # average overall mshr miss latency
system.cpu.itb_walker_cache.tags.pwrStateResidencyTicks::UNDEFINED 2148138569500                       # Cumulative time (in ticks) in various power states
system.cpu.itb_walker_cache.tags.replacements            0                       # number of replacements
system.cpu.itb_walker_cache.tags.tagsinuse            0                       # Cycle average of tags in use
system.cpu.itb_walker_cache.tags.total_refs            0                       # Total number of references to valid blocks.
system.cpu.itb_walker_cache.tags.sampled_refs            0                       # Sample count of references to valid blocks.
system.cpu.itb_walker_cache.tags.avg_refs          nan                       # Average number of references to valid blocks.
system.cpu.itb_walker_cache.tags.warmup_cycle            0                       # Cycle when the warmup percentage was hit.
system.cpu.itb_walker_cache.tags.tag_accesses            0                       # Number of tag accesses
system.cpu.itb_walker_cache.tags.data_accesses            0                       # Number of data accesses
system.cpu.itb_walker_cache.pwrStateResidencyTicks::UNDEFINED 2148138569500                       # Cumulative time (in ticks) in various power states
system.cpu.itb_walker_cache.blocked_cycles::no_mshrs            0                       # number of cycles access was blocked
system.cpu.itb_walker_cache.blocked_cycles::no_targets            0                       # number of cycles access was blocked
system.cpu.itb_walker_cache.blocked::no_mshrs            0                       # number of cycles access was blocked
system.cpu.itb_walker_cache.blocked::no_targets            0                       # number of cycles access was blocked
system.cpu.itb_walker_cache.avg_blocked_cycles::no_mshrs          nan                       # average number of cycles each access was blocked
system.cpu.itb_walker_cache.avg_blocked_cycles::no_targets          nan                       # average number of cycles each access was blocked
system.l2.tags.pwrStateResidencyTicks::UNDEFINED 2148138569500                       # Cumulative time (in ticks) in various power states
system.l2.tags.replacements                  10067684                       # number of replacements
system.l2.tags.tagsinuse                 32637.098507                       # Cycle average of tags in use
system.l2.tags.total_refs                    47173704                       # Total number of references to valid blocks.
system.l2.tags.sampled_refs                  10100452                       # Sample count of references to valid blocks.
system.l2.tags.avg_refs                      4.670455                       # Average number of references to valid blocks.
system.l2.tags.warmup_cycle               28627730000                       # Cycle when the warmup percentage was hit.
system.l2.tags.occ_blocks::writebacks       48.349397                       # Average occupied blocks per requestor
system.l2.tags.occ_blocks::cpu.inst         23.880961                       # Average occupied blocks per requestor
system.l2.tags.occ_blocks::cpu.data      32564.868149                       # Average occupied blocks per requestor
system.l2.tags.occ_percent::writebacks       0.001476                       # Average percentage of cache occupancy
system.l2.tags.occ_percent::cpu.inst         0.000729                       # Average percentage of cache occupancy
system.l2.tags.occ_percent::cpu.data         0.993801                       # Average percentage of cache occupancy
system.l2.tags.occ_percent::total            0.996005                       # Average percentage of cache occupancy
system.l2.tags.occ_task_id_blocks::1024         32768                       # Occupied blocks per task id
system.l2.tags.age_task_id_blocks_1024::1          547                       # Occupied blocks per task id
system.l2.tags.age_task_id_blocks_1024::2         4443                       # Occupied blocks per task id
system.l2.tags.age_task_id_blocks_1024::3        18159                       # Occupied blocks per task id
system.l2.tags.age_task_id_blocks_1024::4         9619                       # Occupied blocks per task id
system.l2.tags.occ_task_id_percent::1024            1                       # Percentage of cache occupancy per task id
system.l2.tags.tag_accesses                 124672630                       # Number of tag accesses
system.l2.tags.data_accesses                124672630                       # Number of data accesses
system.l2.pwrStateResidencyTicks::UNDEFINED 2148138569500                       # Cumulative time (in ticks) in various power states
system.l2.WritebackDirty_hits::writebacks      6531155                       # number of WritebackDirty hits
system.l2.WritebackDirty_hits::total          6531155                       # number of WritebackDirty hits
system.l2.WritebackClean_hits::writebacks      7727590                       # number of WritebackClean hits
system.l2.WritebackClean_hits::total          7727590                       # number of WritebackClean hits
system.l2.ReadExReq_hits::cpu.data            1085144                       # number of ReadExReq hits
system.l2.ReadExReq_hits::total               1085144                       # number of ReadExReq hits
system.l2.ReadCleanReq_hits::cpu.inst         7726606                       # number of ReadCleanReq hits
system.l2.ReadCleanReq_hits::total            7726606                       # number of ReadCleanReq hits
system.l2.ReadSharedReq_hits::cpu.data        9739699                       # number of ReadSharedReq hits
system.l2.ReadSharedReq_hits::total           9739699                       # number of ReadSharedReq hits
system.l2.demand_hits::cpu.inst               7726606                       # number of demand (read+write) hits
system.l2.demand_hits::cpu.data              10824843                       # number of demand (read+write) hits
system.l2.demand_hits::total                 18551449                       # number of demand (read+write) hits
system.l2.overall_hits::cpu.inst              7726606                       # number of overall hits
system.l2.overall_hits::cpu.data             10824843                       # number of overall hits
system.l2.overall_hits::total                18551449                       # number of overall hits
system.l2.ReadExReq_misses::cpu.data           437052                       # number of ReadExReq misses
system.l2.ReadExReq_misses::total              437052                       # number of ReadExReq misses
system.l2.ReadCleanReq_misses::cpu.inst          1239                       # number of ReadCleanReq misses
system.l2.ReadCleanReq_misses::total             1239                       # number of ReadCleanReq misses
system.l2.ReadSharedReq_misses::cpu.data      9653944                       # number of ReadSharedReq misses
system.l2.ReadSharedReq_misses::total         9653944                       # number of ReadSharedReq misses
system.l2.demand_misses::cpu.inst                1239                       # number of demand (read+write) misses
system.l2.demand_misses::cpu.data            10090996                       # number of demand (read+write) misses
system.l2.demand_misses::total               10092235                       # number of demand (read+write) misses
system.l2.overall_misses::cpu.inst               1239                       # number of overall misses
system.l2.overall_misses::cpu.data           10090996                       # number of overall misses
system.l2.overall_misses::total              10092235                       # number of overall misses
system.l2.ReadExReq_miss_latency::cpu.data  39055036000                       # number of ReadExReq miss cycles
system.l2.ReadExReq_miss_latency::total   39055036000                       # number of ReadExReq miss cycles
system.l2.ReadCleanReq_miss_latency::cpu.inst    108703000                       # number of ReadCleanReq miss cycles
system.l2.ReadCleanReq_miss_latency::total    108703000                       # number of ReadCleanReq miss cycles
system.l2.ReadSharedReq_miss_latency::cpu.data 900137867000                       # number of ReadSharedReq miss cycles
system.l2.ReadSharedReq_miss_latency::total 900137867000                       # number of ReadSharedReq miss cycles
system.l2.demand_miss_latency::cpu.inst     108703000                       # number of demand (read+write) miss cycles
system.l2.demand_miss_latency::cpu.data  939192903000                       # number of demand (read+write) miss cycles
system.l2.demand_miss_latency::total     939301606000                       # number of demand (read+write) miss cycles
system.l2.overall_miss_latency::cpu.inst    108703000                       # number of overall miss cycles
system.l2.overall_miss_latency::cpu.data 939192903000                       # number of overall miss cycles
system.l2.overall_miss_latency::total    939301606000                       # number of overall miss cycles
system.l2.WritebackDirty_accesses::writebacks      6531155                       # number of WritebackDirty accesses(hits+misses)
system.l2.WritebackDirty_accesses::total      6531155                       # number of WritebackDirty accesses(hits+misses)
system.l2.WritebackClean_accesses::writebacks      7727590                       # number of WritebackClean accesses(hits+misses)
system.l2.WritebackClean_accesses::total      7727590                       # number of WritebackClean accesses(hits+misses)
system.l2.ReadExReq_accesses::cpu.data        1522196                       # number of ReadExReq accesses(hits+misses)
system.l2.ReadExReq_accesses::total           1522196                       # number of ReadExReq accesses(hits+misses)
system.l2.ReadCleanReq_accesses::cpu.inst      7727845                       # number of ReadCleanReq accesses(hits+misses)
system.l2.ReadCleanReq_accesses::total        7727845                       # number of ReadCleanReq accesses(hits+misses)
system.l2.ReadSharedReq_accesses::cpu.data     19393643                       # number of ReadSharedReq accesses(hits+misses)
system.l2.ReadSharedReq_accesses::total      19393643                       # number of ReadSharedReq accesses(hits+misses)
system.l2.demand_accesses::cpu.inst           7727845                       # number of demand (read+write) accesses
system.l2.demand_accesses::cpu.data          20915839                       # number of demand (read+write) accesses
system.l2.demand_accesses::total             28643684                       # number of demand (read+write) accesses
system.l2.overall_accesses::cpu.inst          7727845                       # number of overall (read+write) accesses
system.l2.overall_accesses::cpu.data         20915839                       # number of overall (read+write) accesses
system.l2.overall_accesses::total            28643684                       # number of overall (read+write) accesses
system.l2.ReadExReq_miss_rate::cpu.data      0.287119                       # miss rate for ReadExReq accesses
system.l2.ReadExReq_miss_rate::total         0.287119                       # miss rate for ReadExReq accesses
system.l2.ReadCleanReq_miss_rate::cpu.inst     0.000160                       # miss rate for ReadCleanReq accesses
system.l2.ReadCleanReq_miss_rate::total      0.000160                       # miss rate for ReadCleanReq accesses
system.l2.ReadSharedReq_miss_rate::cpu.data     0.497789                       # miss rate for ReadSharedReq accesses
system.l2.ReadSharedReq_miss_rate::total     0.497789                       # miss rate for ReadSharedReq accesses
system.l2.demand_miss_rate::cpu.inst         0.000160                       # miss rate for demand accesses
system.l2.demand_miss_rate::cpu.data         0.482457                       # miss rate for demand accesses
system.l2.demand_miss_rate::total            0.352337                       # miss rate for demand accesses
system.l2.overall_miss_rate::cpu.inst        0.000160                       # miss rate for overall accesses
system.l2.overall_miss_rate::cpu.data        0.482457                       # miss rate for overall accesses
system.l2.overall_miss_rate::total           0.352337                       # miss rate for overall accesses
system.l2.ReadExReq_avg_miss_latency::cpu.data 89360.158517                       # average ReadExReq miss latency
system.l2.ReadExReq_avg_miss_latency::total 89360.158517                       # average ReadExReq miss latency
system.l2.ReadCleanReq_avg_miss_latency::cpu.inst 87734.463277                       # average ReadCleanReq miss latency
system.l2.ReadCleanReq_avg_miss_latency::total 87734.463277                       # average ReadCleanReq miss latency
system.l2.ReadSharedReq_avg_miss_latency::cpu.data 93240.427643                       # average ReadSharedReq miss latency
system.l2.ReadSharedReq_avg_miss_latency::total 93240.427643                       # average ReadSharedReq miss latency
system.l2.demand_avg_miss_latency::cpu.inst 87734.463277                       # average overall miss latency
system.l2.demand_avg_miss_latency::cpu.data 93072.368971                       # average overall miss latency
system.l2.demand_avg_miss_latency::total 93071.713649                       # average overall miss latency
system.l2.overall_avg_miss_latency::cpu.inst 87734.463277                       # average overall miss latency
system.l2.overall_avg_miss_latency::cpu.data 93072.368971                       # average overall miss latency
system.l2.overall_avg_miss_latency::total 93071.713649                       # average overall miss latency
system.l2.blocked_cycles::no_mshrs                  0                       # number of cycles access was blocked
system.l2.blocked_cycles::no_targets                0                       # number of cycles access was blocked
system.l2.blocked::no_mshrs                         0                       # number of cycles access was blocked
system.l2.blocked::no_targets                       0                       # number of cycles access was blocked
system.l2.avg_blocked_cycles::no_mshrs            nan                       # average number of cycles each access was blocked
system.l2.avg_blocked_cycles::no_targets          nan                       # average number of cycles each access was blocked
system.l2.writebacks::writebacks              1245026                       # number of writebacks
system.l2.writebacks::total                   1245026                       # number of writebacks
system.l2.CleanEvict_mshr_misses::writebacks        11933                       # number of CleanEvict MSHR misses
system.l2.CleanEvict_mshr_misses::total         11933                       # number of CleanEvict MSHR misses
system.l2.ReadExReq_mshr_misses::cpu.data       437052                       # number of ReadExReq MSHR misses
system.l2.ReadExReq_mshr_misses::total         437052                       # number of ReadExReq MSHR misses
system.l2.ReadCleanReq_mshr_misses::cpu.inst         1239                       # number of ReadCleanReq MSHR misses
system.l2.ReadCleanReq_mshr_misses::total         1239                       # number of ReadCleanReq MSHR misses
system.l2.ReadSharedReq_mshr_misses::cpu.data      9653944                       # number of ReadSharedReq MSHR misses
system.l2.ReadSharedReq_mshr_misses::total      9653944                       # number of ReadSharedReq MSHR misses
system.l2.demand_mshr_misses::cpu.inst           1239                       # number of demand (read+write) MSHR misses
system.l2.demand_mshr_misses::cpu.data       10090996                       # number of demand (read+write) MSHR misses
system.l2.demand_mshr_misses::total          10092235                       # number of demand (read+write) MSHR misses
system.l2.overall_mshr_misses::cpu.inst          1239                       # number of overall MSHR misses
system.l2.overall_mshr_misses::cpu.data      10090996                       # number of overall MSHR misses
system.l2.overall_mshr_misses::total         10092235                       # number of overall MSHR misses
system.l2.ReadExReq_mshr_miss_latency::cpu.data  34684516000                       # number of ReadExReq MSHR miss cycles
system.l2.ReadExReq_mshr_miss_latency::total  34684516000                       # number of ReadExReq MSHR miss cycles
system.l2.ReadCleanReq_mshr_miss_latency::cpu.inst     96313000                       # number of ReadCleanReq MSHR miss cycles
system.l2.ReadCleanReq_mshr_miss_latency::total     96313000                       # number of ReadCleanReq MSHR miss cycles
system.l2.ReadSharedReq_mshr_miss_latency::cpu.data 803598427000                       # number of ReadSharedReq MSHR miss cycles
system.l2.ReadSharedReq_mshr_miss_latency::total 803598427000                       # number of ReadSharedReq MSHR miss cycles
system.l2.demand_mshr_miss_latency::cpu.inst     96313000                       # number of demand (read+write) MSHR miss cycles
system.l2.demand_mshr_miss_latency::cpu.data 838282943000                       # number of demand (read+write) MSHR miss cycles
system.l2.demand_mshr_miss_latency::total 838379256000                       # number of demand (read+write) MSHR miss cycles
system.l2.overall_mshr_miss_latency::cpu.inst     96313000                       # number of overall MSHR miss cycles
system.l2.overall_mshr_miss_latency::cpu.data 838282943000                       # number of overall MSHR miss cycles
system.l2.overall_mshr_miss_latency::total 838379256000                       # number of overall MSHR miss cycles
system.l2.CleanEvict_mshr_miss_rate::writebacks          inf                       # mshr miss rate for CleanEvict accesses
system.l2.CleanEvict_mshr_miss_rate::total          inf                       # mshr miss rate for CleanEvict accesses
system.l2.ReadExReq_mshr_miss_rate::cpu.data     0.287119                       # mshr miss rate for ReadExReq accesses
system.l2.ReadExReq_mshr_miss_rate::total     0.287119                       # mshr miss rate for ReadExReq accesses
system.l2.ReadCleanReq_mshr_miss_rate::cpu.inst     0.000160                       # mshr miss rate for ReadCleanReq accesses
system.l2.ReadCleanReq_mshr_miss_rate::total     0.000160                       # mshr miss rate for ReadCleanReq accesses
system.l2.ReadSharedReq_mshr_miss_rate::cpu.data     0.497789                       # mshr miss rate for ReadSharedReq accesses
system.l2.ReadSharedReq_mshr_miss_rate::total     0.497789                       # mshr miss rate for ReadSharedReq accesses
system.l2.demand_mshr_miss_rate::cpu.inst     0.000160                       # mshr miss rate for demand accesses
system.l2.demand_mshr_miss_rate::cpu.data     0.482457                       # mshr miss rate for demand accesses
system.l2.demand_mshr_miss_rate::total       0.352337                       # mshr miss rate for demand accesses
system.l2.overall_mshr_miss_rate::cpu.inst     0.000160                       # mshr miss rate for overall accesses
system.l2.overall_mshr_miss_rate::cpu.data     0.482457                       # mshr miss rate for overall accesses
system.l2.overall_mshr_miss_rate::total      0.352337                       # mshr miss rate for overall accesses
system.l2.ReadExReq_avg_mshr_miss_latency::cpu.data 79360.158517                       # average ReadExReq mshr miss latency
system.l2.ReadExReq_avg_mshr_miss_latency::total 79360.158517                       # average ReadExReq mshr miss latency
system.l2.ReadCleanReq_avg_mshr_miss_latency::cpu.inst 77734.463277                       # average ReadCleanReq mshr miss latency
system.l2.ReadCleanReq_avg_mshr_miss_latency::total 77734.463277                       # average ReadCleanReq mshr miss latency
system.l2.ReadSharedReq_avg_mshr_miss_latency::cpu.data 83240.427643                       # average ReadSharedReq mshr miss latency
system.l2.ReadSharedReq_avg_mshr_miss_latency::total 83240.427643                       # average ReadSharedReq mshr miss latency
system.l2.demand_avg_mshr_miss_latency::cpu.inst 77734.463277                       # average overall mshr miss latency
system.l2.demand_avg_mshr_miss_latency::cpu.data 83072.368971                       # average overall mshr miss latency
system.l2.demand_avg_mshr_miss_latency::total 83071.713649                       # average overall mshr miss latency
system.l2.overall_avg_mshr_miss_latency::cpu.inst 77734.463277                       # average overall mshr miss latency
system.l2.overall_avg_mshr_miss_latency::cpu.data 83072.368971                       # average overall mshr miss latency
system.l2.overall_avg_mshr_miss_latency::total 83071.713649                       # average overall mshr miss latency
system.membus.snoop_filter.tot_requests      20151447                       # Total number of requests made to the snoop filter.
system.membus.snoop_filter.hit_single_requests     10059212                       # Number of requests hitting in the snoop filter with a single holder of the requested data.
system.membus.snoop_filter.hit_multi_requests            0                       # Number of requests hitting in the snoop filter with multiple (>1) holders of the requested data.
system.membus.snoop_filter.tot_snoops               0                       # Total number of snoops made to the snoop filter.
system.membus.snoop_filter.hit_single_snoops            0                       # Number of snoops hitting in the snoop filter with a single holder of the requested data.
system.membus.snoop_filter.hit_multi_snoops            0                       # Number of snoops hitting in the snoop filter with multiple (>1) holders of the requested data.
system.membus.pwrStateResidencyTicks::UNDEFINED 2148138569500                       # Cumulative time (in ticks) in various power states
system.membus.trans_dist::ReadResp            9655183                       # Transaction distribution
system.membus.trans_dist::WritebackDirty      1245026                       # Transaction distribution
system.membus.trans_dist::CleanEvict          8814186                       # Transaction distribution
system.membus.trans_dist::ReadExReq            437052                       # Transaction distribution
system.membus.trans_dist::ReadExResp           437052                       # Transaction distribution
system.membus.trans_dist::ReadSharedReq       9655183                       # Transaction distribution
system.membus.pkt_count_system.l2.mem_side::system.mem_ctrls.port     30243682                       # Packet count per connected master and slave (bytes)
system.membus.pkt_count_system.l2.mem_side::total     30243682                       # Packet count per connected master and slave (bytes)
system.membus.pkt_count::total               30243682                       # Packet count per connected master and slave (bytes)
system.membus.pkt_size_system.l2.mem_side::system.mem_ctrls.port    362792352                       # Cumulative packet size per connected master and slave (bytes)
system.membus.pkt_size_system.l2.mem_side::total    362792352                       # Cumulative packet size per connected master and slave (bytes)
system.membus.pkt_size::total               362792352                       # Cumulative packet size per connected master and slave (bytes)
system.membus.snoops                                0                       # Total snoops (count)
system.membus.snoopTraffic                          0                       # Total snoop traffic (bytes)
system.membus.snoop_fanout::samples          10092235                       # Request fanout histogram
system.membus.snoop_fanout::mean                    0                       # Request fanout histogram
system.membus.snoop_fanout::stdev                   0                       # Request fanout histogram
system.membus.snoop_fanout::underflows              0      0.00%      0.00% # Request fanout histogram
system.membus.snoop_fanout::0                10092235    100.00%    100.00% # Request fanout histogram
system.membus.snoop_fanout::1                       0      0.00%    100.00% # Request fanout histogram
system.membus.snoop_fanout::overflows               0      0.00%    100.00% # Request fanout histogram
system.membus.snoop_fanout::min_value               0                       # Request fanout histogram
system.membus.snoop_fanout::max_value               0                       # Request fanout histogram
system.membus.snoop_fanout::total            10092235                       # Request fanout histogram
system.membus.reqLayer2.occupancy         22655042000                       # Layer occupancy (ticks)
system.membus.reqLayer2.utilization               1.1                       # Layer utilization (%)
system.membus.respLayer1.occupancy        34798598750                       # Layer occupancy (ticks)
system.membus.respLayer1.utilization              1.6                       # Layer utilization (%)
system.tol2bus.snoop_filter.tot_requests     57286089                       # Total number of requests made to the snoop filter.
system.tol2bus.snoop_filter.hit_single_requests     28642405                       # Number of requests hitting in the snoop filter with a single holder of the requested data.
system.tol2bus.snoop_filter.hit_multi_requests            0                       # Number of requests hitting in the snoop filter with multiple (>1) holders of the requested data.
system.tol2bus.snoop_filter.tot_snoops          20405                       # Total number of snoops made to the snoop filter.
system.tol2bus.snoop_filter.hit_single_snoops        20405                       # Number of snoops hitting in the snoop filter with a single holder of the requested data.
system.tol2bus.snoop_filter.hit_multi_snoops            0                       # Number of snoops hitting in the snoop filter with multiple (>1) holders of the requested data.
system.tol2bus.pwrStateResidencyTicks::UNDEFINED 2148138569500                       # Cumulative time (in ticks) in various power states
system.tol2bus.trans_dist::ReadResp          27121488                       # Transaction distribution
system.tol2bus.trans_dist::WritebackDirty      7776181                       # Transaction distribution
system.tol2bus.trans_dist::WritebackClean      7727590                       # Transaction distribution
system.tol2bus.trans_dist::CleanEvict        23206318                       # Transaction distribution
system.tol2bus.trans_dist::ReadExReq          1522196                       # Transaction distribution
system.tol2bus.trans_dist::ReadExResp         1522196                       # Transaction distribution
system.tol2bus.trans_dist::ReadCleanReq       7727845                       # Transaction distribution
system.tol2bus.trans_dist::ReadSharedReq     19393643                       # Transaction distribution
system.tol2bus.pkt_count_system.cpu.icache.mem_side::system.l2.cpu_side     23183280                       # Packet count per connected master and slave (bytes)
system.tol2bus.pkt_count_system.cpu.dcache.mem_side::system.l2.cpu_side     62746493                       # Packet count per connected master and slave (bytes)
system.tol2bus.pkt_count::total              85929773                       # Packet count per connected master and slave (bytes)
system.tol2bus.pkt_size_system.cpu.icache.mem_side::system.l2.cpu_side    494573920                       # Cumulative packet size per connected master and slave (bytes)
system.tol2bus.pkt_size_system.cpu.dcache.mem_side::system.l2.cpu_side    878303808                       # Cumulative packet size per connected master and slave (bytes)
system.tol2bus.pkt_size::total             1372877728                       # Cumulative packet size per connected master and slave (bytes)
system.tol2bus.snoops                        10067684                       # Total snoops (count)
system.tol2bus.snoopTraffic                  39840832                       # Total snoop traffic (bytes)
system.tol2bus.snoop_fanout::samples         38711368                       # Request fanout histogram
system.tol2bus.snoop_fanout::mean            0.000527                       # Request fanout histogram
system.tol2bus.snoop_fanout::stdev           0.022953                       # Request fanout histogram
system.tol2bus.snoop_fanout::underflows             0      0.00%      0.00% # Request fanout histogram
system.tol2bus.snoop_fanout::0               38690963     99.95%     99.95% # Request fanout histogram
system.tol2bus.snoop_fanout::1                  20405      0.05%    100.00% # Request fanout histogram
system.tol2bus.snoop_fanout::2                      0      0.00%    100.00% # Request fanout histogram
system.tol2bus.snoop_fanout::3                      0      0.00%    100.00% # Request fanout histogram
system.tol2bus.snoop_fanout::4                      0      0.00%    100.00% # Request fanout histogram
system.tol2bus.snoop_fanout::overflows              0      0.00%    100.00% # Request fanout histogram
system.tol2bus.snoop_fanout::min_value              0                       # Request fanout histogram
system.tol2bus.snoop_fanout::max_value              1                       # Request fanout histogram
system.tol2bus.snoop_fanout::total           38711368                       # Request fanout histogram
system.tol2bus.reqLayer0.occupancy        35772417000                       # Layer occupancy (ticks)
system.tol2bus.reqLayer0.utilization              1.7                       # Layer utilization (%)
system.tol2bus.respLayer0.occupancy        7727845000                       # Layer occupancy (ticks)
system.tol2bus.respLayer0.utilization             0.4                       # Layer utilization (%)
system.tol2bus.respLayer1.occupancy       20915839000                       # Layer occupancy (ticks)
system.tol2bus.respLayer1.utilization             1.0                       # Layer utilization (%)

---------- End Simulation Statistics   ----------
