
---------- Begin Simulation Statistics ----------
sim_seconds                                  1.099923                       # Number of seconds simulated
sim_ticks                                1099922667500                       # Number of ticks simulated
final_tick                               1099922667500                       # Number of ticks from beginning of simulation (restored from checkpoints and never reset)
sim_freq                                 1000000000000                       # Frequency of simulated ticks
host_inst_rate                                 541649                       # Simulator instruction rate (inst/s)
host_op_rate                                   791296                       # Simulator op (including micro ops) rate (op/s)
host_tick_rate                             1191544356                       # Simulator tick rate (ticks/s)
host_mem_usage                                 658568                       # Number of bytes of host memory used
host_seconds                                   923.11                       # Real time elapsed on the host
sim_insts                                   500000001                       # Number of instructions simulated
sim_ops                                     730450447                       # Number of ops (including micro ops) simulated
system.voltage_domain.voltage                       1                       # Voltage in Volts
system.clk_domain.clock                          1000                       # Clock period in ticks
system.mem_ctrls.pwrStateResidencyTicks::UNDEFINED 1099922667500                       # Cumulative time (in ticks) in various power states
system.mem_ctrls.bytes_read::cpu.inst           58016                       # Number of bytes read from this memory
system.mem_ctrls.bytes_read::cpu.data        31512000                       # Number of bytes read from this memory
system.mem_ctrls.bytes_read::total           31570016                       # Number of bytes read from this memory
system.mem_ctrls.bytes_inst_read::cpu.inst        58016                       # Number of instructions bytes read from this memory
system.mem_ctrls.bytes_inst_read::total         58016                       # Number of instructions bytes read from this memory
system.mem_ctrls.bytes_written::writebacks     17911392                       # Number of bytes written to this memory
system.mem_ctrls.bytes_written::total        17911392                       # Number of bytes written to this memory
system.mem_ctrls.num_reads::cpu.inst             1813                       # Number of read requests responded to by this memory
system.mem_ctrls.num_reads::cpu.data           984750                       # Number of read requests responded to by this memory
system.mem_ctrls.num_reads::total              986563                       # Number of read requests responded to by this memory
system.mem_ctrls.num_writes::writebacks        559731                       # Number of write requests responded to by this memory
system.mem_ctrls.num_writes::total             559731                       # Number of write requests responded to by this memory
system.mem_ctrls.bw_read::cpu.inst              52746                       # Total read bandwidth from this memory (bytes/s)
system.mem_ctrls.bw_read::cpu.data           28649287                       # Total read bandwidth from this memory (bytes/s)
system.mem_ctrls.bw_read::total              28702032                       # Total read bandwidth from this memory (bytes/s)
system.mem_ctrls.bw_inst_read::cpu.inst         52746                       # Instruction read bandwidth from this memory (bytes/s)
system.mem_ctrls.bw_inst_read::total            52746                       # Instruction read bandwidth from this memory (bytes/s)
system.mem_ctrls.bw_write::writebacks        16284228                       # Write bandwidth from this memory (bytes/s)
system.mem_ctrls.bw_write::total             16284228                       # Write bandwidth from this memory (bytes/s)
system.mem_ctrls.bw_total::writebacks        16284228                       # Total bandwidth to/from this memory (bytes/s)
system.mem_ctrls.bw_total::cpu.inst             52746                       # Total bandwidth to/from this memory (bytes/s)
system.mem_ctrls.bw_total::cpu.data          28649287                       # Total bandwidth to/from this memory (bytes/s)
system.mem_ctrls.bw_total::total             44986261                       # Total bandwidth to/from this memory (bytes/s)
system.mem_ctrls.readReqs                      986563                       # Number of read requests accepted
system.mem_ctrls.writeReqs                     559731                       # Number of write requests accepted
system.mem_ctrls.readBursts                    986563                       # Number of DRAM read bursts, including those serviced by the write queue
system.mem_ctrls.writeBursts                   559731                       # Number of DRAM write bursts, including those merged in the write queue
system.mem_ctrls.bytesReadDRAM               63115584                       # Total number of bytes read from DRAM
system.mem_ctrls.bytesReadWrQ                   24448                       # Total number of bytes read from write queue
system.mem_ctrls.bytesWritten                31633920                       # Total number of bytes written to DRAM
system.mem_ctrls.bytesReadSys                31570016                       # Total read bytes from the system interface side
system.mem_ctrls.bytesWrittenSys             17911392                       # Total written bytes from the system interface side
system.mem_ctrls.servicedByWrQ                    382                       # Number of DRAM read bursts serviced by the write queue
system.mem_ctrls.mergedWrBursts                 65419                       # Number of DRAM write bursts merged with an existing one
system.mem_ctrls.neitherReadNorWriteReqs            0                       # Number of requests that are neither read nor write
system.mem_ctrls.perBankRdBursts::0             64468                       # Per bank write bursts
system.mem_ctrls.perBankRdBursts::1             62477                       # Per bank write bursts
system.mem_ctrls.perBankRdBursts::2             61030                       # Per bank write bursts
system.mem_ctrls.perBankRdBursts::3             60462                       # Per bank write bursts
system.mem_ctrls.perBankRdBursts::4             59665                       # Per bank write bursts
system.mem_ctrls.perBankRdBursts::5             60170                       # Per bank write bursts
system.mem_ctrls.perBankRdBursts::6             62126                       # Per bank write bursts
system.mem_ctrls.perBankRdBursts::7             61188                       # Per bank write bursts
system.mem_ctrls.perBankRdBursts::8             58795                       # Per bank write bursts
system.mem_ctrls.perBankRdBursts::9             57851                       # Per bank write bursts
system.mem_ctrls.perBankRdBursts::10            61082                       # Per bank write bursts
system.mem_ctrls.perBankRdBursts::11            62662                       # Per bank write bursts
system.mem_ctrls.perBankRdBursts::12            63510                       # Per bank write bursts
system.mem_ctrls.perBankRdBursts::13            62865                       # Per bank write bursts
system.mem_ctrls.perBankRdBursts::14            63687                       # Per bank write bursts
system.mem_ctrls.perBankRdBursts::15            64143                       # Per bank write bursts
system.mem_ctrls.perBankWrBursts::0             32295                       # Per bank write bursts
system.mem_ctrls.perBankWrBursts::1             31249                       # Per bank write bursts
system.mem_ctrls.perBankWrBursts::2             30285                       # Per bank write bursts
system.mem_ctrls.perBankWrBursts::3             29964                       # Per bank write bursts
system.mem_ctrls.perBankWrBursts::4             29392                       # Per bank write bursts
system.mem_ctrls.perBankWrBursts::5             29269                       # Per bank write bursts
system.mem_ctrls.perBankWrBursts::6             30086                       # Per bank write bursts
system.mem_ctrls.perBankWrBursts::7             30284                       # Per bank write bursts
system.mem_ctrls.perBankWrBursts::8             30354                       # Per bank write bursts
system.mem_ctrls.perBankWrBursts::9             30169                       # Per bank write bursts
system.mem_ctrls.perBankWrBursts::10            31072                       # Per bank write bursts
system.mem_ctrls.perBankWrBursts::11            31322                       # Per bank write bursts
system.mem_ctrls.perBankWrBursts::12            31725                       # Per bank write bursts
system.mem_ctrls.perBankWrBursts::13            32078                       # Per bank write bursts
system.mem_ctrls.perBankWrBursts::14            32441                       # Per bank write bursts
system.mem_ctrls.perBankWrBursts::15            32295                       # Per bank write bursts
system.mem_ctrls.numRdRetry                         0                       # Number of times read queue was full causing retry
system.mem_ctrls.numWrRetry                         0                       # Number of times write queue was full causing retry
system.mem_ctrls.totGap                  1099919422500                       # Total gap between requests
system.mem_ctrls.readPktSize::0                     0                       # Read request sizes (log2)
system.mem_ctrls.readPktSize::1                     0                       # Read request sizes (log2)
system.mem_ctrls.readPktSize::2                     0                       # Read request sizes (log2)
system.mem_ctrls.readPktSize::3                     0                       # Read request sizes (log2)
system.mem_ctrls.readPktSize::4                     0                       # Read request sizes (log2)
system.mem_ctrls.readPktSize::5                986563                       # Read request sizes (log2)
system.mem_ctrls.readPktSize::6                     0                       # Read request sizes (log2)
system.mem_ctrls.writePktSize::0                    0                       # Write request sizes (log2)
system.mem_ctrls.writePktSize::1                    0                       # Write request sizes (log2)
system.mem_ctrls.writePktSize::2                    0                       # Write request sizes (log2)
system.mem_ctrls.writePktSize::3                    0                       # Write request sizes (log2)
system.mem_ctrls.writePktSize::4                    0                       # Write request sizes (log2)
system.mem_ctrls.writePktSize::5               559731                       # Write request sizes (log2)
system.mem_ctrls.writePktSize::6                    0                       # Write request sizes (log2)
system.mem_ctrls.rdQLenPdf::0                  969724                       # What read queue length does an incoming req see
system.mem_ctrls.rdQLenPdf::1                    8178                       # What read queue length does an incoming req see
system.mem_ctrls.rdQLenPdf::2                    8265                       # What read queue length does an incoming req see
system.mem_ctrls.rdQLenPdf::3                      14                       # What read queue length does an incoming req see
system.mem_ctrls.rdQLenPdf::4                       0                       # What read queue length does an incoming req see
system.mem_ctrls.rdQLenPdf::5                       0                       # What read queue length does an incoming req see
system.mem_ctrls.rdQLenPdf::6                       0                       # What read queue length does an incoming req see
system.mem_ctrls.rdQLenPdf::7                       0                       # What read queue length does an incoming req see
system.mem_ctrls.rdQLenPdf::8                       0                       # What read queue length does an incoming req see
system.mem_ctrls.rdQLenPdf::9                       0                       # What read queue length does an incoming req see
system.mem_ctrls.rdQLenPdf::10                      0                       # What read queue length does an incoming req see
system.mem_ctrls.rdQLenPdf::11                      0                       # What read queue length does an incoming req see
system.mem_ctrls.rdQLenPdf::12                      0                       # What read queue length does an incoming req see
system.mem_ctrls.rdQLenPdf::13                      0                       # What read queue length does an incoming req see
system.mem_ctrls.rdQLenPdf::14                      0                       # What read queue length does an incoming req see
system.mem_ctrls.rdQLenPdf::15                      0                       # What read queue length does an incoming req see
system.mem_ctrls.rdQLenPdf::16                      0                       # What read queue length does an incoming req see
system.mem_ctrls.rdQLenPdf::17                      0                       # What read queue length does an incoming req see
system.mem_ctrls.rdQLenPdf::18                      0                       # What read queue length does an incoming req see
system.mem_ctrls.rdQLenPdf::19                      0                       # What read queue length does an incoming req see
system.mem_ctrls.rdQLenPdf::20                      0                       # What read queue length does an incoming req see
system.mem_ctrls.rdQLenPdf::21                      0                       # What read queue length does an incoming req see
system.mem_ctrls.rdQLenPdf::22                      0                       # What read queue length does an incoming req see
system.mem_ctrls.rdQLenPdf::23                      0                       # What read queue length does an incoming req see
system.mem_ctrls.rdQLenPdf::24                      0                       # What read queue length does an incoming req see
system.mem_ctrls.rdQLenPdf::25                      0                       # What read queue length does an incoming req see
system.mem_ctrls.rdQLenPdf::26                      0                       # What read queue length does an incoming req see
system.mem_ctrls.rdQLenPdf::27                      0                       # What read queue length does an incoming req see
system.mem_ctrls.rdQLenPdf::28                      0                       # What read queue length does an incoming req see
system.mem_ctrls.rdQLenPdf::29                      0                       # What read queue length does an incoming req see
system.mem_ctrls.rdQLenPdf::30                      0                       # What read queue length does an incoming req see
system.mem_ctrls.rdQLenPdf::31                      0                       # What read queue length does an incoming req see
system.mem_ctrls.wrQLenPdf::0                       1                       # What write queue length does an incoming req see
system.mem_ctrls.wrQLenPdf::1                       1                       # What write queue length does an incoming req see
system.mem_ctrls.wrQLenPdf::2                       1                       # What write queue length does an incoming req see
system.mem_ctrls.wrQLenPdf::3                       1                       # What write queue length does an incoming req see
system.mem_ctrls.wrQLenPdf::4                       1                       # What write queue length does an incoming req see
system.mem_ctrls.wrQLenPdf::5                       1                       # What write queue length does an incoming req see
system.mem_ctrls.wrQLenPdf::6                       1                       # What write queue length does an incoming req see
system.mem_ctrls.wrQLenPdf::7                       1                       # What write queue length does an incoming req see
system.mem_ctrls.wrQLenPdf::8                       1                       # What write queue length does an incoming req see
system.mem_ctrls.wrQLenPdf::9                       1                       # What write queue length does an incoming req see
system.mem_ctrls.wrQLenPdf::10                      1                       # What write queue length does an incoming req see
system.mem_ctrls.wrQLenPdf::11                      1                       # What write queue length does an incoming req see
system.mem_ctrls.wrQLenPdf::12                      1                       # What write queue length does an incoming req see
system.mem_ctrls.wrQLenPdf::13                      1                       # What write queue length does an incoming req see
system.mem_ctrls.wrQLenPdf::14                      1                       # What write queue length does an incoming req see
system.mem_ctrls.wrQLenPdf::15                  16194                       # What write queue length does an incoming req see
system.mem_ctrls.wrQLenPdf::16                  17444                       # What write queue length does an incoming req see
system.mem_ctrls.wrQLenPdf::17                  28801                       # What write queue length does an incoming req see
system.mem_ctrls.wrQLenPdf::18                  28789                       # What write queue length does an incoming req see
system.mem_ctrls.wrQLenPdf::19                  28790                       # What write queue length does an incoming req see
system.mem_ctrls.wrQLenPdf::20                  28790                       # What write queue length does an incoming req see
system.mem_ctrls.wrQLenPdf::21                  28790                       # What write queue length does an incoming req see
system.mem_ctrls.wrQLenPdf::22                  28790                       # What write queue length does an incoming req see
system.mem_ctrls.wrQLenPdf::23                  28790                       # What write queue length does an incoming req see
system.mem_ctrls.wrQLenPdf::24                  28790                       # What write queue length does an incoming req see
system.mem_ctrls.wrQLenPdf::25                  28794                       # What write queue length does an incoming req see
system.mem_ctrls.wrQLenPdf::26                  28790                       # What write queue length does an incoming req see
system.mem_ctrls.wrQLenPdf::27                  28790                       # What write queue length does an incoming req see
system.mem_ctrls.wrQLenPdf::28                  28790                       # What write queue length does an incoming req see
system.mem_ctrls.wrQLenPdf::29                  28791                       # What write queue length does an incoming req see
system.mem_ctrls.wrQLenPdf::30                  28794                       # What write queue length does an incoming req see
system.mem_ctrls.wrQLenPdf::31                  28790                       # What write queue length does an incoming req see
system.mem_ctrls.wrQLenPdf::32                  28790                       # What write queue length does an incoming req see
system.mem_ctrls.wrQLenPdf::33                      0                       # What write queue length does an incoming req see
system.mem_ctrls.wrQLenPdf::34                      0                       # What write queue length does an incoming req see
system.mem_ctrls.wrQLenPdf::35                      0                       # What write queue length does an incoming req see
system.mem_ctrls.wrQLenPdf::36                      0                       # What write queue length does an incoming req see
system.mem_ctrls.wrQLenPdf::37                      0                       # What write queue length does an incoming req see
system.mem_ctrls.wrQLenPdf::38                      0                       # What write queue length does an incoming req see
system.mem_ctrls.wrQLenPdf::39                      0                       # What write queue length does an incoming req see
system.mem_ctrls.wrQLenPdf::40                      0                       # What write queue length does an incoming req see
system.mem_ctrls.wrQLenPdf::41                      0                       # What write queue length does an incoming req see
system.mem_ctrls.wrQLenPdf::42                      0                       # What write queue length does an incoming req see
system.mem_ctrls.wrQLenPdf::43                      0                       # What write queue length does an incoming req see
system.mem_ctrls.wrQLenPdf::44                      0                       # What write queue length does an incoming req see
system.mem_ctrls.wrQLenPdf::45                      0                       # What write queue length does an incoming req see
system.mem_ctrls.wrQLenPdf::46                      0                       # What write queue length does an incoming req see
system.mem_ctrls.wrQLenPdf::47                      0                       # What write queue length does an incoming req see
system.mem_ctrls.wrQLenPdf::48                      0                       # What write queue length does an incoming req see
system.mem_ctrls.wrQLenPdf::49                      0                       # What write queue length does an incoming req see
system.mem_ctrls.wrQLenPdf::50                      0                       # What write queue length does an incoming req see
system.mem_ctrls.wrQLenPdf::51                      0                       # What write queue length does an incoming req see
system.mem_ctrls.wrQLenPdf::52                      0                       # What write queue length does an incoming req see
system.mem_ctrls.wrQLenPdf::53                      0                       # What write queue length does an incoming req see
system.mem_ctrls.wrQLenPdf::54                      0                       # What write queue length does an incoming req see
system.mem_ctrls.wrQLenPdf::55                      0                       # What write queue length does an incoming req see
system.mem_ctrls.wrQLenPdf::56                      0                       # What write queue length does an incoming req see
system.mem_ctrls.wrQLenPdf::57                      0                       # What write queue length does an incoming req see
system.mem_ctrls.wrQLenPdf::58                      0                       # What write queue length does an incoming req see
system.mem_ctrls.wrQLenPdf::59                      0                       # What write queue length does an incoming req see
system.mem_ctrls.wrQLenPdf::60                      0                       # What write queue length does an incoming req see
system.mem_ctrls.wrQLenPdf::61                      0                       # What write queue length does an incoming req see
system.mem_ctrls.wrQLenPdf::62                      0                       # What write queue length does an incoming req see
system.mem_ctrls.wrQLenPdf::63                      0                       # What write queue length does an incoming req see
system.mem_ctrls.bytesPerActivate::samples       750848                       # Bytes accessed per row activation
system.mem_ctrls.bytesPerActivate::mean    126.189908                       # Bytes accessed per row activation
system.mem_ctrls.bytesPerActivate::gmean    91.208979                       # Bytes accessed per row activation
system.mem_ctrls.bytesPerActivate::stdev   161.851068                       # Bytes accessed per row activation
system.mem_ctrls.bytesPerActivate::0-127       531825     70.83%     70.83% # Bytes accessed per row activation
system.mem_ctrls.bytesPerActivate::128-255       140581     18.72%     89.55% # Bytes accessed per row activation
system.mem_ctrls.bytesPerActivate::256-383        29856      3.98%     93.53% # Bytes accessed per row activation
system.mem_ctrls.bytesPerActivate::384-511        12040      1.60%     95.13% # Bytes accessed per row activation
system.mem_ctrls.bytesPerActivate::512-639        16154      2.15%     97.28% # Bytes accessed per row activation
system.mem_ctrls.bytesPerActivate::640-767         4872      0.65%     97.93% # Bytes accessed per row activation
system.mem_ctrls.bytesPerActivate::768-895         1653      0.22%     98.15% # Bytes accessed per row activation
system.mem_ctrls.bytesPerActivate::896-1023         1274      0.17%     98.32% # Bytes accessed per row activation
system.mem_ctrls.bytesPerActivate::1024-1151        12593      1.68%    100.00% # Bytes accessed per row activation
system.mem_ctrls.bytesPerActivate::total       750848                       # Bytes accessed per row activation
system.mem_ctrls.rdPerTurnAround::samples        28789                       # Reads before turning the bus around for writes
system.mem_ctrls.rdPerTurnAround::mean      33.974365                       # Reads before turning the bus around for writes
system.mem_ctrls.rdPerTurnAround::gmean     26.507415                       # Reads before turning the bus around for writes
system.mem_ctrls.rdPerTurnAround::stdev    304.711862                       # Reads before turning the bus around for writes
system.mem_ctrls.rdPerTurnAround::0-2047        28775     99.95%     99.95% # Reads before turning the bus around for writes
system.mem_ctrls.rdPerTurnAround::2048-4095            6      0.02%     99.97% # Reads before turning the bus around for writes
system.mem_ctrls.rdPerTurnAround::4096-6143            4      0.01%     99.99% # Reads before turning the bus around for writes
system.mem_ctrls.rdPerTurnAround::8192-10239            2      0.01%     99.99% # Reads before turning the bus around for writes
system.mem_ctrls.rdPerTurnAround::10240-12287            1      0.00%    100.00% # Reads before turning the bus around for writes
system.mem_ctrls.rdPerTurnAround::47104-49151            1      0.00%    100.00% # Reads before turning the bus around for writes
system.mem_ctrls.rdPerTurnAround::total         28789                       # Reads before turning the bus around for writes
system.mem_ctrls.wrPerTurnAround::samples        28789                       # Writes before turning the bus around for reads
system.mem_ctrls.wrPerTurnAround::mean      17.169058                       # Writes before turning the bus around for reads
system.mem_ctrls.wrPerTurnAround::gmean     17.141615                       # Writes before turning the bus around for reads
system.mem_ctrls.wrPerTurnAround::stdev      0.964137                       # Writes before turning the bus around for reads
system.mem_ctrls.wrPerTurnAround::16            11342     39.40%     39.40% # Writes before turning the bus around for reads
system.mem_ctrls.wrPerTurnAround::17             1254      4.36%     43.75% # Writes before turning the bus around for reads
system.mem_ctrls.wrPerTurnAround::18            16177     56.19%     99.94% # Writes before turning the bus around for reads
system.mem_ctrls.wrPerTurnAround::19               16      0.06%    100.00% # Writes before turning the bus around for reads
system.mem_ctrls.wrPerTurnAround::total         28789                       # Writes before turning the bus around for reads
system.mem_ctrls.totQLat                  25954971750                       # Total ticks spent queuing
system.mem_ctrls.totMemAccLat             44445865500                       # Total ticks spent from burst creation until serviced by the DRAM
system.mem_ctrls.totBusLat                 4930905000                       # Total ticks spent in databus transfers
system.mem_ctrls.avgQLat                     26318.67                       # Average queueing delay per DRAM burst
system.mem_ctrls.avgBusLat                    5000.00                       # Average bus latency per DRAM burst
system.mem_ctrls.avgMemAccLat                45068.67                       # Average memory access latency per DRAM burst
system.mem_ctrls.avgRdBW                        57.38                       # Average DRAM read bandwidth in MiByte/s
system.mem_ctrls.avgWrBW                        28.76                       # Average achieved write bandwidth in MiByte/s
system.mem_ctrls.avgRdBWSys                     28.70                       # Average system read bandwidth in MiByte/s
system.mem_ctrls.avgWrBWSys                     16.28                       # Average system write bandwidth in MiByte/s
system.mem_ctrls.peakBW                      12800.00                       # Theoretical peak bandwidth in MiByte/s
system.mem_ctrls.busUtil                         0.67                       # Data bus utilization in percentage
system.mem_ctrls.busUtilRead                     0.45                       # Data bus utilization in percentage for reads
system.mem_ctrls.busUtilWrite                    0.22                       # Data bus utilization in percentage for writes
system.mem_ctrls.avgRdQLen                       1.00                       # Average read queue length when enqueuing
system.mem_ctrls.avgWrQLen                      26.45                       # Average write queue length when enqueuing
system.mem_ctrls.readRowHits                   530151                       # Number of row buffer hits during reads
system.mem_ctrls.writeRowHits                  199461                       # Number of row buffer hits during writes
system.mem_ctrls.readRowHitRate                 53.76                       # Row buffer hit rate for reads
system.mem_ctrls.writeRowHitRate                40.35                       # Row buffer hit rate for writes
system.mem_ctrls.avgGap                     711326.19                       # Average gap between requests
system.mem_ctrls.pageHitRate                    49.28                       # Row buffer hit rate, read and write combined
system.mem_ctrls_0.actEnergy               2652945540                       # Energy for activate commands per rank (pJ)
system.mem_ctrls_0.preEnergy               1410070200                       # Energy for precharge commands per rank (pJ)
system.mem_ctrls_0.readEnergy              3509924040                       # Energy for read commands per rank (pJ)
system.mem_ctrls_0.writeEnergy             1267541280                       # Energy for write commands per rank (pJ)
system.mem_ctrls_0.refreshEnergy         42676913760.000008                       # Energy for refresh commands per rank (pJ)
system.mem_ctrls_0.actBackEnergy          24995943240                       # Energy for active background per rank (pJ)
system.mem_ctrls_0.preBackEnergy           1594237440                       # Energy for precharge background per rank (pJ)
system.mem_ctrls_0.actPowerDownEnergy    144801286650                       # Energy for active power-down per rank (pJ)
system.mem_ctrls_0.prePowerDownEnergy     43327621440                       # Energy for precharge power-down per rank (pJ)
system.mem_ctrls_0.selfRefreshEnergy     150447410460                       # Energy for self refresh per rank (pJ)
system.mem_ctrls_0.totalEnergy           416693133180                       # Total energy per rank (pJ)
system.mem_ctrls_0.averagePower            378.838572                       # Core power per rank (mW)
system.mem_ctrls_0.totalIdleTime         1040932708250                       # Total Idle time Per DRAM Rank
system.mem_ctrls_0.memoryStateTime::IDLE   2242135250                       # Time in different power states
system.mem_ctrls_0.memoryStateTime::REF   18096088000                       # Time in different power states
system.mem_ctrls_0.memoryStateTime::SREF 610555739250                       # Time in different power states
system.mem_ctrls_0.memoryStateTime::PRE_PDN 112833074000                       # Time in different power states
system.mem_ctrls_0.memoryStateTime::ACT   38649065000                       # Time in different power states
system.mem_ctrls_0.memoryStateTime::ACT_PDN 317546566000                       # Time in different power states
system.mem_ctrls_1.actEnergy               2708116320                       # Energy for activate commands per rank (pJ)
system.mem_ctrls_1.preEnergy               1439397960                       # Energy for precharge commands per rank (pJ)
system.mem_ctrls_1.readEnergy              3531408300                       # Energy for read commands per rank (pJ)
system.mem_ctrls_1.writeEnergy             1312600320                       # Energy for write commands per rank (pJ)
system.mem_ctrls_1.refreshEnergy         42471624000.000008                       # Energy for refresh commands per rank (pJ)
system.mem_ctrls_1.actBackEnergy          25173431550                       # Energy for active background per rank (pJ)
system.mem_ctrls_1.preBackEnergy           1592744640                       # Energy for precharge background per rank (pJ)
system.mem_ctrls_1.actPowerDownEnergy    143675810250                       # Energy for active power-down per rank (pJ)
system.mem_ctrls_1.prePowerDownEnergy     43339082400                       # Energy for precharge power-down per rank (pJ)
system.mem_ctrls_1.selfRefreshEnergy     150897859470                       # Energy for self refresh per rank (pJ)
system.mem_ctrls_1.totalEnergy           416151616830                       # Total energy per rank (pJ)
system.mem_ctrls_1.averagePower            378.346249                       # Core power per rank (mW)
system.mem_ctrls_1.totalIdleTime         1040509754000                       # Total Idle time Per DRAM Rank
system.mem_ctrls_1.memoryStateTime::IDLE   2226864000                       # Time in different power states
system.mem_ctrls_1.memoryStateTime::REF   18008960000                       # Time in different power states
system.mem_ctrls_1.memoryStateTime::SREF 612608025250                       # Time in different power states
system.mem_ctrls_1.memoryStateTime::PRE_PDN 112862533500                       # Time in different power states
system.mem_ctrls_1.memoryStateTime::ACT   39138874500                       # Time in different power states
system.mem_ctrls_1.memoryStateTime::ACT_PDN 315077410250                       # Time in different power states
system.pwrStateResidencyTicks::UNDEFINED 1099922667500                       # Cumulative time (in ticks) in various power states
system.cpu_voltage_domain.voltage                   1                       # Voltage in Volts
system.cpu_clk_domain.clock                       500                       # Clock period in ticks
system.cpu.dtb.walker.pwrStateResidencyTicks::UNDEFINED 1099922667500                       # Cumulative time (in ticks) in various power states
system.cpu.apic_clk_domain.clock                 8000                       # Clock period in ticks
system.cpu.interrupts.pwrStateResidencyTicks::UNDEFINED 1099922667500                       # Cumulative time (in ticks) in various power states
system.cpu.itb.walker.pwrStateResidencyTicks::UNDEFINED 1099922667500                       # Cumulative time (in ticks) in various power states
system.cpu.workload.num_syscalls                   86                       # Number of system calls
system.cpu.pwrStateResidencyTicks::ON    1099922667500                       # Cumulative time (in ticks) in various power states
system.cpu.numCycles                       2199845335                       # number of cpu cycles simulated
system.cpu.numWorkItemsStarted                      0                       # number of work items this cpu started
system.cpu.numWorkItemsCompleted                    0                       # number of work items this cpu completed
system.cpu.committedInsts                   500000001                       # Number of instructions committed
system.cpu.committedOps                     730450447                       # Number of ops (including micro ops) committed
system.cpu.num_int_alu_accesses             729688906                       # Number of integer alu accesses
system.cpu.num_fp_alu_accesses                    663                       # Number of float alu accesses
system.cpu.num_func_calls                     1453961                       # number of times a function call or return occured
system.cpu.num_conditional_control_insts     31770496                       # number of instructions that are conditional controls
system.cpu.num_int_insts                    729688906                       # number of integer instructions
system.cpu.num_fp_insts                           663                       # number of float instructions
system.cpu.num_int_register_reads          1698743411                       # number of times the integer registers were read
system.cpu.num_int_register_writes          621892950                       # number of times the integer registers were written
system.cpu.num_fp_register_reads                 1009                       # number of times the floating registers were read
system.cpu.num_fp_register_writes                 429                       # number of times the floating registers were written
system.cpu.num_cc_register_reads            180840559                       # number of times the CC registers were read
system.cpu.num_cc_register_writes           276245121                       # number of times the CC registers were written
system.cpu.num_mem_refs                     295985461                       # number of memory refs
system.cpu.num_load_insts                   225946751                       # Number of load instructions
system.cpu.num_store_insts                   70038710                       # Number of store instructions
system.cpu.num_idle_cycles                          0                       # Number of idle cycles
system.cpu.num_busy_cycles                 2199845335                       # Number of busy cycles
system.cpu.not_idle_fraction                        1                       # Percentage of non-idle cycles
system.cpu.idle_fraction                            0                       # Percentage of idle cycles
system.cpu.Branches                          37843296                       # Number of branches fetched
system.cpu.op_class::No_OpClass                 94740      0.01%      0.01% # Class of executed instruction
system.cpu.op_class::IntAlu                 434349067     59.46%     59.48% # Class of executed instruction
system.cpu.op_class::IntMult                    20662      0.00%     59.48% # Class of executed instruction
system.cpu.op_class::IntDiv                       119      0.00%     59.48% # Class of executed instruction
system.cpu.op_class::FloatAdd                     398      0.00%     59.48% # Class of executed instruction
system.cpu.op_class::FloatCmp                       0      0.00%     59.48% # Class of executed instruction
system.cpu.op_class::FloatCvt                       0      0.00%     59.48% # Class of executed instruction
system.cpu.op_class::FloatMult                      0      0.00%     59.48% # Class of executed instruction
system.cpu.op_class::FloatDiv                       0      0.00%     59.48% # Class of executed instruction
system.cpu.op_class::FloatSqrt                      0      0.00%     59.48% # Class of executed instruction
system.cpu.op_class::SimdAdd                        0      0.00%     59.48% # Class of executed instruction
system.cpu.op_class::SimdAddAcc                     0      0.00%     59.48% # Class of executed instruction
system.cpu.op_class::SimdAlu                        0      0.00%     59.48% # Class of executed instruction
system.cpu.op_class::SimdCmp                        0      0.00%     59.48% # Class of executed instruction
system.cpu.op_class::SimdCvt                        0      0.00%     59.48% # Class of executed instruction
system.cpu.op_class::SimdMisc                       0      0.00%     59.48% # Class of executed instruction
system.cpu.op_class::SimdMult                       0      0.00%     59.48% # Class of executed instruction
system.cpu.op_class::SimdMultAcc                    0      0.00%     59.48% # Class of executed instruction
system.cpu.op_class::SimdShift                      0      0.00%     59.48% # Class of executed instruction
system.cpu.op_class::SimdShiftAcc                   0      0.00%     59.48% # Class of executed instruction
system.cpu.op_class::SimdSqrt                       0      0.00%     59.48% # Class of executed instruction
system.cpu.op_class::SimdFloatAdd                   0      0.00%     59.48% # Class of executed instruction
system.cpu.op_class::SimdFloatAlu                   0      0.00%     59.48% # Class of executed instruction
system.cpu.op_class::SimdFloatCmp                   0      0.00%     59.48% # Class of executed instruction
system.cpu.op_class::SimdFloatCvt                   0      0.00%     59.48% # Class of executed instruction
system.cpu.op_class::SimdFloatDiv                   0      0.00%     59.48% # Class of executed instruction
system.cpu.op_class::SimdFloatMisc                  0      0.00%     59.48% # Class of executed instruction
system.cpu.op_class::SimdFloatMult                  0      0.00%     59.48% # Class of executed instruction
system.cpu.op_class::SimdFloatMultAcc               0      0.00%     59.48% # Class of executed instruction
system.cpu.op_class::SimdFloatSqrt                  0      0.00%     59.48% # Class of executed instruction
system.cpu.op_class::MemRead                225946751     30.93%     90.41% # Class of executed instruction
system.cpu.op_class::MemWrite                70038710      9.59%    100.00% # Class of executed instruction
system.cpu.op_class::IprAccess                      0      0.00%    100.00% # Class of executed instruction
system.cpu.op_class::InstPrefetch                   0      0.00%    100.00% # Class of executed instruction
system.cpu.op_class::total                  730450447                       # Class of executed instruction
system.cpu.dcache.tags.pwrStateResidencyTicks::UNDEFINED 1099922667500                       # Cumulative time (in ticks) in various power states
system.cpu.dcache.tags.replacements           2797177                       # number of replacements
system.cpu.dcache.tags.tagsinuse          2042.160847                       # Cycle average of tags in use
system.cpu.dcache.tags.total_refs           293186249                       # Total number of references to valid blocks.
system.cpu.dcache.tags.sampled_refs           2799225                       # Sample count of references to valid blocks.
system.cpu.dcache.tags.avg_refs            104.738365                       # Average number of references to valid blocks.
system.cpu.dcache.tags.warmup_cycle        3852955500                       # Cycle when the warmup percentage was hit.
system.cpu.dcache.tags.occ_blocks::cpu.data  2042.160847                       # Average occupied blocks per requestor
system.cpu.dcache.tags.occ_percent::cpu.data     0.997149                       # Average percentage of cache occupancy
system.cpu.dcache.tags.occ_percent::total     0.997149                       # Average percentage of cache occupancy
system.cpu.dcache.tags.occ_task_id_blocks::1024         2048                       # Occupied blocks per task id
system.cpu.dcache.tags.age_task_id_blocks_1024::0            1                       # Occupied blocks per task id
system.cpu.dcache.tags.age_task_id_blocks_1024::1            3                       # Occupied blocks per task id
system.cpu.dcache.tags.age_task_id_blocks_1024::2           32                       # Occupied blocks per task id
system.cpu.dcache.tags.age_task_id_blocks_1024::3         1823                       # Occupied blocks per task id
system.cpu.dcache.tags.age_task_id_blocks_1024::4          189                       # Occupied blocks per task id
system.cpu.dcache.tags.occ_task_id_percent::1024            1                       # Percentage of cache occupancy per task id
system.cpu.dcache.tags.tag_accesses         594770173                       # Number of tag accesses
system.cpu.dcache.tags.data_accesses        594770173                       # Number of data accesses
system.cpu.dcache.pwrStateResidencyTicks::UNDEFINED 1099922667500                       # Cumulative time (in ticks) in various power states
system.cpu.dcache.ReadReq_hits::cpu.data    223903487                       # number of ReadReq hits
system.cpu.dcache.ReadReq_hits::total       223903487                       # number of ReadReq hits
system.cpu.dcache.WriteReq_hits::cpu.data     69282762                       # number of WriteReq hits
system.cpu.dcache.WriteReq_hits::total       69282762                       # number of WriteReq hits
system.cpu.dcache.demand_hits::cpu.data     293186249                       # number of demand (read+write) hits
system.cpu.dcache.demand_hits::total        293186249                       # number of demand (read+write) hits
system.cpu.dcache.overall_hits::cpu.data    293186249                       # number of overall hits
system.cpu.dcache.overall_hits::total       293186249                       # number of overall hits
system.cpu.dcache.ReadReq_misses::cpu.data      2026891                       # number of ReadReq misses
system.cpu.dcache.ReadReq_misses::total       2026891                       # number of ReadReq misses
system.cpu.dcache.WriteReq_misses::cpu.data       755950                       # number of WriteReq misses
system.cpu.dcache.WriteReq_misses::total       755950                       # number of WriteReq misses
system.cpu.dcache.SoftPFReq_misses::cpu.data        16384                       # number of SoftPFReq misses
system.cpu.dcache.SoftPFReq_misses::total        16384                       # number of SoftPFReq misses
system.cpu.dcache.demand_misses::cpu.data      2782841                       # number of demand (read+write) misses
system.cpu.dcache.demand_misses::total        2782841                       # number of demand (read+write) misses
system.cpu.dcache.overall_misses::cpu.data      2799225                       # number of overall misses
system.cpu.dcache.overall_misses::total       2799225                       # number of overall misses
system.cpu.dcache.ReadReq_miss_latency::cpu.data  69871661000                       # number of ReadReq miss cycles
system.cpu.dcache.ReadReq_miss_latency::total  69871661000                       # number of ReadReq miss cycles
system.cpu.dcache.WriteReq_miss_latency::cpu.data  49286553000                       # number of WriteReq miss cycles
system.cpu.dcache.WriteReq_miss_latency::total  49286553000                       # number of WriteReq miss cycles
system.cpu.dcache.demand_miss_latency::cpu.data 119158214000                       # number of demand (read+write) miss cycles
system.cpu.dcache.demand_miss_latency::total 119158214000                       # number of demand (read+write) miss cycles
system.cpu.dcache.overall_miss_latency::cpu.data 119158214000                       # number of overall miss cycles
system.cpu.dcache.overall_miss_latency::total 119158214000                       # number of overall miss cycles
system.cpu.dcache.ReadReq_accesses::cpu.data    225930378                       # number of ReadReq accesses(hits+misses)
system.cpu.dcache.ReadReq_accesses::total    225930378                       # number of ReadReq accesses(hits+misses)
system.cpu.dcache.WriteReq_accesses::cpu.data     70038712                       # number of WriteReq accesses(hits+misses)
system.cpu.dcache.WriteReq_accesses::total     70038712                       # number of WriteReq accesses(hits+misses)
system.cpu.dcache.SoftPFReq_accesses::cpu.data        16384                       # number of SoftPFReq accesses(hits+misses)
system.cpu.dcache.SoftPFReq_accesses::total        16384                       # number of SoftPFReq accesses(hits+misses)
system.cpu.dcache.demand_accesses::cpu.data    295969090                       # number of demand (read+write) accesses
system.cpu.dcache.demand_accesses::total    295969090                       # number of demand (read+write) accesses
system.cpu.dcache.overall_accesses::cpu.data    295985474                       # number of overall (read+write) accesses
system.cpu.dcache.overall_accesses::total    295985474                       # number of overall (read+write) accesses
system.cpu.dcache.ReadReq_miss_rate::cpu.data     0.008971                       # miss rate for ReadReq accesses
system.cpu.dcache.ReadReq_miss_rate::total     0.008971                       # miss rate for ReadReq accesses
system.cpu.dcache.WriteReq_miss_rate::cpu.data     0.010793                       # miss rate for WriteReq accesses
system.cpu.dcache.WriteReq_miss_rate::total     0.010793                       # miss rate for WriteReq accesses
system.cpu.dcache.SoftPFReq_miss_rate::cpu.data            1                       # miss rate for SoftPFReq accesses
system.cpu.dcache.SoftPFReq_miss_rate::total            1                       # miss rate for SoftPFReq accesses
system.cpu.dcache.demand_miss_rate::cpu.data     0.009402                       # miss rate for demand accesses
system.cpu.dcache.demand_miss_rate::total     0.009402                       # miss rate for demand accesses
system.cpu.dcache.overall_miss_rate::cpu.data     0.009457                       # miss rate for overall accesses
system.cpu.dcache.overall_miss_rate::total     0.009457                       # miss rate for overall accesses
system.cpu.dcache.ReadReq_avg_miss_latency::cpu.data 34472.332750                       # average ReadReq miss latency
system.cpu.dcache.ReadReq_avg_miss_latency::total 34472.332750                       # average ReadReq miss latency
system.cpu.dcache.WriteReq_avg_miss_latency::cpu.data 65198.165223                       # average WriteReq miss latency
system.cpu.dcache.WriteReq_avg_miss_latency::total 65198.165223                       # average WriteReq miss latency
system.cpu.dcache.demand_avg_miss_latency::cpu.data 42818.908446                       # average overall miss latency
system.cpu.dcache.demand_avg_miss_latency::total 42818.908446                       # average overall miss latency
system.cpu.dcache.overall_avg_miss_latency::cpu.data 42568.287294                       # average overall miss latency
system.cpu.dcache.overall_avg_miss_latency::total 42568.287294                       # average overall miss latency
system.cpu.dcache.blocked_cycles::no_mshrs         3005                       # number of cycles access was blocked
system.cpu.dcache.blocked_cycles::no_targets            0                       # number of cycles access was blocked
system.cpu.dcache.blocked::no_mshrs                15                       # number of cycles access was blocked
system.cpu.dcache.blocked::no_targets               0                       # number of cycles access was blocked
system.cpu.dcache.avg_blocked_cycles::no_mshrs   200.333333                       # average number of cycles each access was blocked
system.cpu.dcache.avg_blocked_cycles::no_targets          nan                       # average number of cycles each access was blocked
system.cpu.dcache.writebacks::writebacks      1295592                       # number of writebacks
system.cpu.dcache.writebacks::total           1295592                       # number of writebacks
system.cpu.dcache.ReadReq_mshr_misses::cpu.data      2026891                       # number of ReadReq MSHR misses
system.cpu.dcache.ReadReq_mshr_misses::total      2026891                       # number of ReadReq MSHR misses
system.cpu.dcache.WriteReq_mshr_misses::cpu.data       755950                       # number of WriteReq MSHR misses
system.cpu.dcache.WriteReq_mshr_misses::total       755950                       # number of WriteReq MSHR misses
system.cpu.dcache.SoftPFReq_mshr_misses::cpu.data        16384                       # number of SoftPFReq MSHR misses
system.cpu.dcache.SoftPFReq_mshr_misses::total        16384                       # number of SoftPFReq MSHR misses
system.cpu.dcache.demand_mshr_misses::cpu.data      2782841                       # number of demand (read+write) MSHR misses
system.cpu.dcache.demand_mshr_misses::total      2782841                       # number of demand (read+write) MSHR misses
system.cpu.dcache.overall_mshr_misses::cpu.data      2799225                       # number of overall MSHR misses
system.cpu.dcache.overall_mshr_misses::total      2799225                       # number of overall MSHR misses
system.cpu.dcache.ReadReq_mshr_miss_latency::cpu.data  67844770000                       # number of ReadReq MSHR miss cycles
system.cpu.dcache.ReadReq_mshr_miss_latency::total  67844770000                       # number of ReadReq MSHR miss cycles
system.cpu.dcache.WriteReq_mshr_miss_latency::cpu.data  48530603000                       # number of WriteReq MSHR miss cycles
system.cpu.dcache.WriteReq_mshr_miss_latency::total  48530603000                       # number of WriteReq MSHR miss cycles
system.cpu.dcache.SoftPFReq_mshr_miss_latency::cpu.data   1370968000                       # number of SoftPFReq MSHR miss cycles
system.cpu.dcache.SoftPFReq_mshr_miss_latency::total   1370968000                       # number of SoftPFReq MSHR miss cycles
system.cpu.dcache.demand_mshr_miss_latency::cpu.data 116375373000                       # number of demand (read+write) MSHR miss cycles
system.cpu.dcache.demand_mshr_miss_latency::total 116375373000                       # number of demand (read+write) MSHR miss cycles
system.cpu.dcache.overall_mshr_miss_latency::cpu.data 117746341000                       # number of overall MSHR miss cycles
system.cpu.dcache.overall_mshr_miss_latency::total 117746341000                       # number of overall MSHR miss cycles
system.cpu.dcache.ReadReq_mshr_miss_rate::cpu.data     0.008971                       # mshr miss rate for ReadReq accesses
system.cpu.dcache.ReadReq_mshr_miss_rate::total     0.008971                       # mshr miss rate for ReadReq accesses
system.cpu.dcache.WriteReq_mshr_miss_rate::cpu.data     0.010793                       # mshr miss rate for WriteReq accesses
system.cpu.dcache.WriteReq_mshr_miss_rate::total     0.010793                       # mshr miss rate for WriteReq accesses
system.cpu.dcache.SoftPFReq_mshr_miss_rate::cpu.data            1                       # mshr miss rate for SoftPFReq accesses
system.cpu.dcache.SoftPFReq_mshr_miss_rate::total            1                       # mshr miss rate for SoftPFReq accesses
system.cpu.dcache.demand_mshr_miss_rate::cpu.data     0.009402                       # mshr miss rate for demand accesses
system.cpu.dcache.demand_mshr_miss_rate::total     0.009402                       # mshr miss rate for demand accesses
system.cpu.dcache.overall_mshr_miss_rate::cpu.data     0.009457                       # mshr miss rate for overall accesses
system.cpu.dcache.overall_mshr_miss_rate::total     0.009457                       # mshr miss rate for overall accesses
system.cpu.dcache.ReadReq_avg_mshr_miss_latency::cpu.data 33472.332750                       # average ReadReq mshr miss latency
system.cpu.dcache.ReadReq_avg_mshr_miss_latency::total 33472.332750                       # average ReadReq mshr miss latency
system.cpu.dcache.WriteReq_avg_mshr_miss_latency::cpu.data 64198.165223                       # average WriteReq mshr miss latency
system.cpu.dcache.WriteReq_avg_mshr_miss_latency::total 64198.165223                       # average WriteReq mshr miss latency
system.cpu.dcache.SoftPFReq_avg_mshr_miss_latency::cpu.data 83677.246094                       # average SoftPFReq mshr miss latency
system.cpu.dcache.SoftPFReq_avg_mshr_miss_latency::total 83677.246094                       # average SoftPFReq mshr miss latency
system.cpu.dcache.demand_avg_mshr_miss_latency::cpu.data 41818.908446                       # average overall mshr miss latency
system.cpu.dcache.demand_avg_mshr_miss_latency::total 41818.908446                       # average overall mshr miss latency
system.cpu.dcache.overall_avg_mshr_miss_latency::cpu.data 42063.907331                       # average overall mshr miss latency
system.cpu.dcache.overall_avg_mshr_miss_latency::total 42063.907331                       # average overall mshr miss latency
system.cpu.dtb_walker_cache.tags.pwrStateResidencyTicks::UNDEFINED 1099922667500                       # Cumulative time (in ticks) in various power states
system.cpu.dtb_walker_cache.tags.replacements            0                       # number of replacements
system.cpu.dtb_walker_cache.tags.tagsinuse            0                       # Cycle average of tags in use
system.cpu.dtb_walker_cache.tags.total_refs            0                       # Total number of references to valid blocks.
system.cpu.dtb_walker_cache.tags.sampled_refs            0                       # Sample count of references to valid blocks.
system.cpu.dtb_walker_cache.tags.avg_refs          nan                       # Average number of references to valid blocks.
system.cpu.dtb_walker_cache.tags.warmup_cycle            0                       # Cycle when the warmup percentage was hit.
system.cpu.dtb_walker_cache.tags.tag_accesses            0                       # Number of tag accesses
system.cpu.dtb_walker_cache.tags.data_accesses            0                       # Number of data accesses
system.cpu.dtb_walker_cache.pwrStateResidencyTicks::UNDEFINED 1099922667500                       # Cumulative time (in ticks) in various power states
system.cpu.dtb_walker_cache.blocked_cycles::no_mshrs            0                       # number of cycles access was blocked
system.cpu.dtb_walker_cache.blocked_cycles::no_targets            0                       # number of cycles access was blocked
system.cpu.dtb_walker_cache.blocked::no_mshrs            0                       # number of cycles access was blocked
system.cpu.dtb_walker_cache.blocked::no_targets            0                       # number of cycles access was blocked
system.cpu.dtb_walker_cache.avg_blocked_cycles::no_mshrs          nan                       # average number of cycles each access was blocked
system.cpu.dtb_walker_cache.avg_blocked_cycles::no_targets          nan                       # average number of cycles each access was blocked
system.cpu.icache.tags.pwrStateResidencyTicks::UNDEFINED 1099922667500                       # Cumulative time (in ticks) in various power states
system.cpu.icache.tags.replacements               329                       # number of replacements
system.cpu.icache.tags.tagsinuse          1091.339488                       # Cycle average of tags in use
system.cpu.icache.tags.total_refs           687396039                       # Total number of references to valid blocks.
system.cpu.icache.tags.sampled_refs              1823                       # Sample count of references to valid blocks.
system.cpu.icache.tags.avg_refs          377068.589687                       # Average number of references to valid blocks.
system.cpu.icache.tags.warmup_cycle                 0                       # Cycle when the warmup percentage was hit.
system.cpu.icache.tags.occ_blocks::cpu.inst  1091.339488                       # Average occupied blocks per requestor
system.cpu.icache.tags.occ_percent::cpu.inst     0.532881                       # Average percentage of cache occupancy
system.cpu.icache.tags.occ_percent::total     0.532881                       # Average percentage of cache occupancy
system.cpu.icache.tags.occ_task_id_blocks::1024         1494                       # Occupied blocks per task id
system.cpu.icache.tags.age_task_id_blocks_1024::1           14                       # Occupied blocks per task id
system.cpu.icache.tags.age_task_id_blocks_1024::3           50                       # Occupied blocks per task id
system.cpu.icache.tags.age_task_id_blocks_1024::4         1430                       # Occupied blocks per task id
system.cpu.icache.tags.occ_task_id_percent::1024     0.729492                       # Percentage of cache occupancy per task id
system.cpu.icache.tags.tag_accesses        1374797547                       # Number of tag accesses
system.cpu.icache.tags.data_accesses       1374797547                       # Number of data accesses
system.cpu.icache.pwrStateResidencyTicks::UNDEFINED 1099922667500                       # Cumulative time (in ticks) in various power states
system.cpu.icache.ReadReq_hits::cpu.inst    687396039                       # number of ReadReq hits
system.cpu.icache.ReadReq_hits::total       687396039                       # number of ReadReq hits
system.cpu.icache.demand_hits::cpu.inst     687396039                       # number of demand (read+write) hits
system.cpu.icache.demand_hits::total        687396039                       # number of demand (read+write) hits
system.cpu.icache.overall_hits::cpu.inst    687396039                       # number of overall hits
system.cpu.icache.overall_hits::total       687396039                       # number of overall hits
system.cpu.icache.ReadReq_misses::cpu.inst         1823                       # number of ReadReq misses
system.cpu.icache.ReadReq_misses::total          1823                       # number of ReadReq misses
system.cpu.icache.demand_misses::cpu.inst         1823                       # number of demand (read+write) misses
system.cpu.icache.demand_misses::total           1823                       # number of demand (read+write) misses
system.cpu.icache.overall_misses::cpu.inst         1823                       # number of overall misses
system.cpu.icache.overall_misses::total          1823                       # number of overall misses
system.cpu.icache.ReadReq_miss_latency::cpu.inst    164340000                       # number of ReadReq miss cycles
system.cpu.icache.ReadReq_miss_latency::total    164340000                       # number of ReadReq miss cycles
system.cpu.icache.demand_miss_latency::cpu.inst    164340000                       # number of demand (read+write) miss cycles
system.cpu.icache.demand_miss_latency::total    164340000                       # number of demand (read+write) miss cycles
system.cpu.icache.overall_miss_latency::cpu.inst    164340000                       # number of overall miss cycles
system.cpu.icache.overall_miss_latency::total    164340000                       # number of overall miss cycles
system.cpu.icache.ReadReq_accesses::cpu.inst    687397862                       # number of ReadReq accesses(hits+misses)
system.cpu.icache.ReadReq_accesses::total    687397862                       # number of ReadReq accesses(hits+misses)
system.cpu.icache.demand_accesses::cpu.inst    687397862                       # number of demand (read+write) accesses
system.cpu.icache.demand_accesses::total    687397862                       # number of demand (read+write) accesses
system.cpu.icache.overall_accesses::cpu.inst    687397862                       # number of overall (read+write) accesses
system.cpu.icache.overall_accesses::total    687397862                       # number of overall (read+write) accesses
system.cpu.icache.ReadReq_miss_rate::cpu.inst     0.000003                       # miss rate for ReadReq accesses
system.cpu.icache.ReadReq_miss_rate::total     0.000003                       # miss rate for ReadReq accesses
system.cpu.icache.demand_miss_rate::cpu.inst     0.000003                       # miss rate for demand accesses
system.cpu.icache.demand_miss_rate::total     0.000003                       # miss rate for demand accesses
system.cpu.icache.overall_miss_rate::cpu.inst     0.000003                       # miss rate for overall accesses
system.cpu.icache.overall_miss_rate::total     0.000003                       # miss rate for overall accesses
system.cpu.icache.ReadReq_avg_miss_latency::cpu.inst 90148.107515                       # average ReadReq miss latency
system.cpu.icache.ReadReq_avg_miss_latency::total 90148.107515                       # average ReadReq miss latency
system.cpu.icache.demand_avg_miss_latency::cpu.inst 90148.107515                       # average overall miss latency
system.cpu.icache.demand_avg_miss_latency::total 90148.107515                       # average overall miss latency
system.cpu.icache.overall_avg_miss_latency::cpu.inst 90148.107515                       # average overall miss latency
system.cpu.icache.overall_avg_miss_latency::total 90148.107515                       # average overall miss latency
system.cpu.icache.blocked_cycles::no_mshrs            0                       # number of cycles access was blocked
system.cpu.icache.blocked_cycles::no_targets            0                       # number of cycles access was blocked
system.cpu.icache.blocked::no_mshrs                 0                       # number of cycles access was blocked
system.cpu.icache.blocked::no_targets               0                       # number of cycles access was blocked
system.cpu.icache.avg_blocked_cycles::no_mshrs          nan                       # average number of cycles each access was blocked
system.cpu.icache.avg_blocked_cycles::no_targets          nan                       # average number of cycles each access was blocked
system.cpu.icache.writebacks::writebacks          329                       # number of writebacks
system.cpu.icache.writebacks::total               329                       # number of writebacks
system.cpu.icache.ReadReq_mshr_misses::cpu.inst         1823                       # number of ReadReq MSHR misses
system.cpu.icache.ReadReq_mshr_misses::total         1823                       # number of ReadReq MSHR misses
system.cpu.icache.demand_mshr_misses::cpu.inst         1823                       # number of demand (read+write) MSHR misses
system.cpu.icache.demand_mshr_misses::total         1823                       # number of demand (read+write) MSHR misses
system.cpu.icache.overall_mshr_misses::cpu.inst         1823                       # number of overall MSHR misses
system.cpu.icache.overall_mshr_misses::total         1823                       # number of overall MSHR misses
system.cpu.icache.ReadReq_mshr_miss_latency::cpu.inst    162517000                       # number of ReadReq MSHR miss cycles
system.cpu.icache.ReadReq_mshr_miss_latency::total    162517000                       # number of ReadReq MSHR miss cycles
system.cpu.icache.demand_mshr_miss_latency::cpu.inst    162517000                       # number of demand (read+write) MSHR miss cycles
system.cpu.icache.demand_mshr_miss_latency::total    162517000                       # number of demand (read+write) MSHR miss cycles
system.cpu.icache.overall_mshr_miss_latency::cpu.inst    162517000                       # number of overall MSHR miss cycles
system.cpu.icache.overall_mshr_miss_latency::total    162517000                       # number of overall MSHR miss cycles
system.cpu.icache.ReadReq_mshr_miss_rate::cpu.inst     0.000003                       # mshr miss rate for ReadReq accesses
system.cpu.icache.ReadReq_mshr_miss_rate::total     0.000003                       # mshr miss rate for ReadReq accesses
system.cpu.icache.demand_mshr_miss_rate::cpu.inst     0.000003                       # mshr miss rate for demand accesses
system.cpu.icache.demand_mshr_miss_rate::total     0.000003                       # mshr miss rate for demand accesses
system.cpu.icache.overall_mshr_miss_rate::cpu.inst     0.000003                       # mshr miss rate for overall accesses
system.cpu.icache.overall_mshr_miss_rate::total     0.000003                       # mshr miss rate for overall accesses
system.cpu.icache.ReadReq_avg_mshr_miss_latency::cpu.inst 89148.107515                       # average ReadReq mshr miss latency
system.cpu.icache.ReadReq_avg_mshr_miss_latency::total 89148.107515                       # average ReadReq mshr miss latency
system.cpu.icache.demand_avg_mshr_miss_latency::cpu.inst 89148.107515                       # average overall mshr miss latency
system.cpu.icache.demand_avg_mshr_miss_latency::total 89148.107515                       # average overall mshr miss latency
system.cpu.icache.overall_avg_mshr_miss_latency::cpu.inst 89148.107515                       # average overall mshr miss latency
system.cpu.icache.overall_avg_mshr_miss_latency::total 89148.107515                       # average overall mshr miss latency
system.cpu.itb_walker_cache.tags.pwrStateResidencyTicks::UNDEFINED 1099922667500                       # Cumulative time (in ticks) in various power states
system.cpu.itb_walker_cache.tags.replacements            0                       # number of replacements
system.cpu.itb_walker_cache.tags.tagsinuse            0                       # Cycle average of tags in use
system.cpu.itb_walker_cache.tags.total_refs            0                       # Total number of references to valid blocks.
system.cpu.itb_walker_cache.tags.sampled_refs            0                       # Sample count of references to valid blocks.
system.cpu.itb_walker_cache.tags.avg_refs          nan                       # Average number of references to valid blocks.
system.cpu.itb_walker_cache.tags.warmup_cycle            0                       # Cycle when the warmup percentage was hit.
system.cpu.itb_walker_cache.tags.tag_accesses            0                       # Number of tag accesses
system.cpu.itb_walker_cache.tags.data_accesses            0                       # Number of data accesses
system.cpu.itb_walker_cache.pwrStateResidencyTicks::UNDEFINED 1099922667500                       # Cumulative time (in ticks) in various power states
system.cpu.itb_walker_cache.blocked_cycles::no_mshrs            0                       # number of cycles access was blocked
system.cpu.itb_walker_cache.blocked_cycles::no_targets            0                       # number of cycles access was blocked
system.cpu.itb_walker_cache.blocked::no_mshrs            0                       # number of cycles access was blocked
system.cpu.itb_walker_cache.blocked::no_targets            0                       # number of cycles access was blocked
system.cpu.itb_walker_cache.avg_blocked_cycles::no_mshrs          nan                       # average number of cycles each access was blocked
system.cpu.itb_walker_cache.avg_blocked_cycles::no_targets          nan                       # average number of cycles each access was blocked
system.l2.tags.pwrStateResidencyTicks::UNDEFINED 1099922667500                       # Cumulative time (in ticks) in various power states
system.l2.tags.replacements                    954413                       # number of replacements
system.l2.tags.tagsinuse                 32638.215667                       # Cycle average of tags in use
system.l2.tags.total_refs                     4611279                       # Total number of references to valid blocks.
system.l2.tags.sampled_refs                    987181                       # Sample count of references to valid blocks.
system.l2.tags.avg_refs                      4.671159                       # Average number of references to valid blocks.
system.l2.tags.warmup_cycle                5516293000                       # Cycle when the warmup percentage was hit.
system.l2.tags.occ_blocks::writebacks       38.093476                       # Average occupied blocks per requestor
system.l2.tags.occ_blocks::cpu.inst         80.487877                       # Average occupied blocks per requestor
system.l2.tags.occ_blocks::cpu.data      32519.634315                       # Average occupied blocks per requestor
system.l2.tags.occ_percent::writebacks       0.001163                       # Average percentage of cache occupancy
system.l2.tags.occ_percent::cpu.inst         0.002456                       # Average percentage of cache occupancy
system.l2.tags.occ_percent::cpu.data         0.992420                       # Average percentage of cache occupancy
system.l2.tags.occ_percent::total            0.996039                       # Average percentage of cache occupancy
system.l2.tags.occ_task_id_blocks::1024         32768                       # Occupied blocks per task id
system.l2.tags.age_task_id_blocks_1024::0            1                       # Occupied blocks per task id
system.l2.tags.age_task_id_blocks_1024::1           24                       # Occupied blocks per task id
system.l2.tags.age_task_id_blocks_1024::2           32                       # Occupied blocks per task id
system.l2.tags.age_task_id_blocks_1024::3          492                       # Occupied blocks per task id
system.l2.tags.age_task_id_blocks_1024::4        32219                       # Occupied blocks per task id
system.l2.tags.occ_task_id_percent::1024            1                       # Percentage of cache occupancy per task id
system.l2.tags.tag_accesses                  23381393                       # Number of tag accesses
system.l2.tags.data_accesses                 23381393                       # Number of data accesses
system.l2.pwrStateResidencyTicks::UNDEFINED 1099922667500                       # Cumulative time (in ticks) in various power states
system.l2.WritebackDirty_hits::writebacks      1295592                       # number of WritebackDirty hits
system.l2.WritebackDirty_hits::total          1295592                       # number of WritebackDirty hits
system.l2.WritebackClean_hits::writebacks          329                       # number of WritebackClean hits
system.l2.WritebackClean_hits::total              329                       # number of WritebackClean hits
system.l2.ReadExReq_hits::cpu.data             281676                       # number of ReadExReq hits
system.l2.ReadExReq_hits::total                281676                       # number of ReadExReq hits
system.l2.ReadCleanReq_hits::cpu.inst              10                       # number of ReadCleanReq hits
system.l2.ReadCleanReq_hits::total                 10                       # number of ReadCleanReq hits
system.l2.ReadSharedReq_hits::cpu.data        1532799                       # number of ReadSharedReq hits
system.l2.ReadSharedReq_hits::total           1532799                       # number of ReadSharedReq hits
system.l2.demand_hits::cpu.inst                    10                       # number of demand (read+write) hits
system.l2.demand_hits::cpu.data               1814475                       # number of demand (read+write) hits
system.l2.demand_hits::total                  1814485                       # number of demand (read+write) hits
system.l2.overall_hits::cpu.inst                   10                       # number of overall hits
system.l2.overall_hits::cpu.data              1814475                       # number of overall hits
system.l2.overall_hits::total                 1814485                       # number of overall hits
system.l2.ReadExReq_misses::cpu.data           474274                       # number of ReadExReq misses
system.l2.ReadExReq_misses::total              474274                       # number of ReadExReq misses
system.l2.ReadCleanReq_misses::cpu.inst          1813                       # number of ReadCleanReq misses
system.l2.ReadCleanReq_misses::total             1813                       # number of ReadCleanReq misses
system.l2.ReadSharedReq_misses::cpu.data       510476                       # number of ReadSharedReq misses
system.l2.ReadSharedReq_misses::total          510476                       # number of ReadSharedReq misses
system.l2.demand_misses::cpu.inst                1813                       # number of demand (read+write) misses
system.l2.demand_misses::cpu.data              984750                       # number of demand (read+write) misses
system.l2.demand_misses::total                 986563                       # number of demand (read+write) misses
system.l2.overall_misses::cpu.inst               1813                       # number of overall misses
system.l2.overall_misses::cpu.data             984750                       # number of overall misses
system.l2.overall_misses::total                986563                       # number of overall misses
system.l2.ReadExReq_miss_latency::cpu.data  44439080000                       # number of ReadExReq miss cycles
system.l2.ReadExReq_miss_latency::total   44439080000                       # number of ReadExReq miss cycles
system.l2.ReadCleanReq_miss_latency::cpu.inst    159676500                       # number of ReadCleanReq miss cycles
system.l2.ReadCleanReq_miss_latency::total    159676500                       # number of ReadCleanReq miss cycles
system.l2.ReadSharedReq_miss_latency::cpu.data  50056436000                       # number of ReadSharedReq miss cycles
system.l2.ReadSharedReq_miss_latency::total  50056436000                       # number of ReadSharedReq miss cycles
system.l2.demand_miss_latency::cpu.inst     159676500                       # number of demand (read+write) miss cycles
system.l2.demand_miss_latency::cpu.data   94495516000                       # number of demand (read+write) miss cycles
system.l2.demand_miss_latency::total      94655192500                       # number of demand (read+write) miss cycles
system.l2.overall_miss_latency::cpu.inst    159676500                       # number of overall miss cycles
system.l2.overall_miss_latency::cpu.data  94495516000                       # number of overall miss cycles
system.l2.overall_miss_latency::total     94655192500                       # number of overall miss cycles
system.l2.WritebackDirty_accesses::writebacks      1295592                       # number of WritebackDirty accesses(hits+misses)
system.l2.WritebackDirty_accesses::total      1295592                       # number of WritebackDirty accesses(hits+misses)
system.l2.WritebackClean_accesses::writebacks          329                       # number of WritebackClean accesses(hits+misses)
system.l2.WritebackClean_accesses::total          329                       # number of WritebackClean accesses(hits+misses)
system.l2.ReadExReq_accesses::cpu.data         755950                       # number of ReadExReq accesses(hits+misses)
system.l2.ReadExReq_accesses::total            755950                       # number of ReadExReq accesses(hits+misses)
system.l2.ReadCleanReq_accesses::cpu.inst         1823                       # number of ReadCleanReq accesses(hits+misses)
system.l2.ReadCleanReq_accesses::total           1823                       # number of ReadCleanReq accesses(hits+misses)
system.l2.ReadSharedReq_accesses::cpu.data      2043275                       # number of ReadSharedReq accesses(hits+misses)
system.l2.ReadSharedReq_accesses::total       2043275                       # number of ReadSharedReq accesses(hits+misses)
system.l2.demand_accesses::cpu.inst              1823                       # number of demand (read+write) accesses
system.l2.demand_accesses::cpu.data           2799225                       # number of demand (read+write) accesses
system.l2.demand_accesses::total              2801048                       # number of demand (read+write) accesses
system.l2.overall_accesses::cpu.inst             1823                       # number of overall (read+write) accesses
system.l2.overall_accesses::cpu.data          2799225                       # number of overall (read+write) accesses
system.l2.overall_accesses::total             2801048                       # number of overall (read+write) accesses
system.l2.ReadExReq_miss_rate::cpu.data      0.627388                       # miss rate for ReadExReq accesses
system.l2.ReadExReq_miss_rate::total         0.627388                       # miss rate for ReadExReq accesses
system.l2.ReadCleanReq_miss_rate::cpu.inst     0.994515                       # miss rate for ReadCleanReq accesses
system.l2.ReadCleanReq_miss_rate::total      0.994515                       # miss rate for ReadCleanReq accesses
system.l2.ReadSharedReq_miss_rate::cpu.data     0.249832                       # miss rate for ReadSharedReq accesses
system.l2.ReadSharedReq_miss_rate::total     0.249832                       # miss rate for ReadSharedReq accesses
system.l2.demand_miss_rate::cpu.inst         0.994515                       # miss rate for demand accesses
system.l2.demand_miss_rate::cpu.data         0.351794                       # miss rate for demand accesses
system.l2.demand_miss_rate::total            0.352212                       # miss rate for demand accesses
system.l2.overall_miss_rate::cpu.inst        0.994515                       # miss rate for overall accesses
system.l2.overall_miss_rate::cpu.data        0.351794                       # miss rate for overall accesses
system.l2.overall_miss_rate::total           0.352212                       # miss rate for overall accesses
system.l2.ReadExReq_avg_miss_latency::cpu.data 93699.169678                       # average ReadExReq miss latency
system.l2.ReadExReq_avg_miss_latency::total 93699.169678                       # average ReadExReq miss latency
system.l2.ReadCleanReq_avg_miss_latency::cpu.inst 88073.083287                       # average ReadCleanReq miss latency
system.l2.ReadCleanReq_avg_miss_latency::total 88073.083287                       # average ReadCleanReq miss latency
system.l2.ReadSharedReq_avg_miss_latency::cpu.data 98058.353380                       # average ReadSharedReq miss latency
system.l2.ReadSharedReq_avg_miss_latency::total 98058.353380                       # average ReadSharedReq miss latency
system.l2.demand_avg_miss_latency::cpu.inst 88073.083287                       # average overall miss latency
system.l2.demand_avg_miss_latency::cpu.data 95958.889058                       # average overall miss latency
system.l2.demand_avg_miss_latency::total 95944.397367                       # average overall miss latency
system.l2.overall_avg_miss_latency::cpu.inst 88073.083287                       # average overall miss latency
system.l2.overall_avg_miss_latency::cpu.data 95958.889058                       # average overall miss latency
system.l2.overall_avg_miss_latency::total 95944.397367                       # average overall miss latency
system.l2.blocked_cycles::no_mshrs                  0                       # number of cycles access was blocked
system.l2.blocked_cycles::no_targets                0                       # number of cycles access was blocked
system.l2.blocked::no_mshrs                         0                       # number of cycles access was blocked
system.l2.blocked::no_targets                       0                       # number of cycles access was blocked
system.l2.avg_blocked_cycles::no_mshrs            nan                       # average number of cycles each access was blocked
system.l2.avg_blocked_cycles::no_targets          nan                       # average number of cycles each access was blocked
system.l2.writebacks::writebacks               559731                       # number of writebacks
system.l2.writebacks::total                    559731                       # number of writebacks
system.l2.CleanEvict_mshr_misses::writebacks           93                       # number of CleanEvict MSHR misses
system.l2.CleanEvict_mshr_misses::total            93                       # number of CleanEvict MSHR misses
system.l2.ReadExReq_mshr_misses::cpu.data       474274                       # number of ReadExReq MSHR misses
system.l2.ReadExReq_mshr_misses::total         474274                       # number of ReadExReq MSHR misses
system.l2.ReadCleanReq_mshr_misses::cpu.inst         1813                       # number of ReadCleanReq MSHR misses
system.l2.ReadCleanReq_mshr_misses::total         1813                       # number of ReadCleanReq MSHR misses
system.l2.ReadSharedReq_mshr_misses::cpu.data       510476                       # number of ReadSharedReq MSHR misses
system.l2.ReadSharedReq_mshr_misses::total       510476                       # number of ReadSharedReq MSHR misses
system.l2.demand_mshr_misses::cpu.inst           1813                       # number of demand (read+write) MSHR misses
system.l2.demand_mshr_misses::cpu.data         984750                       # number of demand (read+write) MSHR misses
system.l2.demand_mshr_misses::total            986563                       # number of demand (read+write) MSHR misses
system.l2.overall_mshr_misses::cpu.inst          1813                       # number of overall MSHR misses
system.l2.overall_mshr_misses::cpu.data        984750                       # number of overall MSHR misses
system.l2.overall_mshr_misses::total           986563                       # number of overall MSHR misses
system.l2.ReadExReq_mshr_miss_latency::cpu.data  39696340000                       # number of ReadExReq MSHR miss cycles
system.l2.ReadExReq_mshr_miss_latency::total  39696340000                       # number of ReadExReq MSHR miss cycles
system.l2.ReadCleanReq_mshr_miss_latency::cpu.inst    141546500                       # number of ReadCleanReq MSHR miss cycles
system.l2.ReadCleanReq_mshr_miss_latency::total    141546500                       # number of ReadCleanReq MSHR miss cycles
system.l2.ReadSharedReq_mshr_miss_latency::cpu.data  44951676000                       # number of ReadSharedReq MSHR miss cycles
system.l2.ReadSharedReq_mshr_miss_latency::total  44951676000                       # number of ReadSharedReq MSHR miss cycles
system.l2.demand_mshr_miss_latency::cpu.inst    141546500                       # number of demand (read+write) MSHR miss cycles
system.l2.demand_mshr_miss_latency::cpu.data  84648016000                       # number of demand (read+write) MSHR miss cycles
system.l2.demand_mshr_miss_latency::total  84789562500                       # number of demand (read+write) MSHR miss cycles
system.l2.overall_mshr_miss_latency::cpu.inst    141546500                       # number of overall MSHR miss cycles
system.l2.overall_mshr_miss_latency::cpu.data  84648016000                       # number of overall MSHR miss cycles
system.l2.overall_mshr_miss_latency::total  84789562500                       # number of overall MSHR miss cycles
system.l2.CleanEvict_mshr_miss_rate::writebacks          inf                       # mshr miss rate for CleanEvict accesses
system.l2.CleanEvict_mshr_miss_rate::total          inf                       # mshr miss rate for CleanEvict accesses
system.l2.ReadExReq_mshr_miss_rate::cpu.data     0.627388                       # mshr miss rate for ReadExReq accesses
system.l2.ReadExReq_mshr_miss_rate::total     0.627388                       # mshr miss rate for ReadExReq accesses
system.l2.ReadCleanReq_mshr_miss_rate::cpu.inst     0.994515                       # mshr miss rate for ReadCleanReq accesses
system.l2.ReadCleanReq_mshr_miss_rate::total     0.994515                       # mshr miss rate for ReadCleanReq accesses
system.l2.ReadSharedReq_mshr_miss_rate::cpu.data     0.249832                       # mshr miss rate for ReadSharedReq accesses
system.l2.ReadSharedReq_mshr_miss_rate::total     0.249832                       # mshr miss rate for ReadSharedReq accesses
system.l2.demand_mshr_miss_rate::cpu.inst     0.994515                       # mshr miss rate for demand accesses
system.l2.demand_mshr_miss_rate::cpu.data     0.351794                       # mshr miss rate for demand accesses
system.l2.demand_mshr_miss_rate::total       0.352212                       # mshr miss rate for demand accesses
system.l2.overall_mshr_miss_rate::cpu.inst     0.994515                       # mshr miss rate for overall accesses
system.l2.overall_mshr_miss_rate::cpu.data     0.351794                       # mshr miss rate for overall accesses
system.l2.overall_mshr_miss_rate::total      0.352212                       # mshr miss rate for overall accesses
system.l2.ReadExReq_avg_mshr_miss_latency::cpu.data 83699.169678                       # average ReadExReq mshr miss latency
system.l2.ReadExReq_avg_mshr_miss_latency::total 83699.169678                       # average ReadExReq mshr miss latency
system.l2.ReadCleanReq_avg_mshr_miss_latency::cpu.inst 78073.083287                       # average ReadCleanReq mshr miss latency
system.l2.ReadCleanReq_avg_mshr_miss_latency::total 78073.083287                       # average ReadCleanReq mshr miss latency
system.l2.ReadSharedReq_avg_mshr_miss_latency::cpu.data 88058.353380                       # average ReadSharedReq mshr miss latency
system.l2.ReadSharedReq_avg_mshr_miss_latency::total 88058.353380                       # average ReadSharedReq mshr miss latency
system.l2.demand_avg_mshr_miss_latency::cpu.inst 78073.083287                       # average overall mshr miss latency
system.l2.demand_avg_mshr_miss_latency::cpu.data 85958.889058                       # average overall mshr miss latency
system.l2.demand_avg_mshr_miss_latency::total 85944.397367                       # average overall mshr miss latency
system.l2.overall_avg_mshr_miss_latency::cpu.inst 78073.083287                       # average overall mshr miss latency
system.l2.overall_avg_mshr_miss_latency::cpu.data 85958.889058                       # average overall mshr miss latency
system.l2.overall_avg_mshr_miss_latency::total 85944.397367                       # average overall mshr miss latency
system.membus.snoop_filter.tot_requests       1939365                       # Total number of requests made to the snoop filter.
system.membus.snoop_filter.hit_single_requests       952802                       # Number of requests hitting in the snoop filter with a single holder of the requested data.
system.membus.snoop_filter.hit_multi_requests            0                       # Number of requests hitting in the snoop filter with multiple (>1) holders of the requested data.
system.membus.snoop_filter.tot_snoops               0                       # Total number of snoops made to the snoop filter.
system.membus.snoop_filter.hit_single_snoops            0                       # Number of snoops hitting in the snoop filter with a single holder of the requested data.
system.membus.snoop_filter.hit_multi_snoops            0                       # Number of snoops hitting in the snoop filter with multiple (>1) holders of the requested data.
system.membus.pwrStateResidencyTicks::UNDEFINED 1099922667500                       # Cumulative time (in ticks) in various power states
system.membus.trans_dist::ReadResp             512289                       # Transaction distribution
system.membus.trans_dist::WritebackDirty       559731                       # Transaction distribution
system.membus.trans_dist::CleanEvict           393071                       # Transaction distribution
system.membus.trans_dist::ReadExReq            474274                       # Transaction distribution
system.membus.trans_dist::ReadExResp           474274                       # Transaction distribution
system.membus.trans_dist::ReadSharedReq        512289                       # Transaction distribution
system.membus.pkt_count_system.l2.mem_side::system.mem_ctrls.port      2925928                       # Packet count per connected master and slave (bytes)
system.membus.pkt_count_system.l2.mem_side::total      2925928                       # Packet count per connected master and slave (bytes)
system.membus.pkt_count::total                2925928                       # Packet count per connected master and slave (bytes)
system.membus.pkt_size_system.l2.mem_side::system.mem_ctrls.port     49481408                       # Cumulative packet size per connected master and slave (bytes)
system.membus.pkt_size_system.l2.mem_side::total     49481408                       # Cumulative packet size per connected master and slave (bytes)
system.membus.pkt_size::total                49481408                       # Cumulative packet size per connected master and slave (bytes)
system.membus.snoops                                0                       # Total snoops (count)
system.membus.snoopTraffic                          0                       # Total snoop traffic (bytes)
system.membus.snoop_fanout::samples            986563                       # Request fanout histogram
system.membus.snoop_fanout::mean                    0                       # Request fanout histogram
system.membus.snoop_fanout::stdev                   0                       # Request fanout histogram
system.membus.snoop_fanout::underflows              0      0.00%      0.00% # Request fanout histogram
system.membus.snoop_fanout::0                  986563    100.00%    100.00% # Request fanout histogram
system.membus.snoop_fanout::1                       0      0.00%    100.00% # Request fanout histogram
system.membus.snoop_fanout::overflows               0      0.00%    100.00% # Request fanout histogram
system.membus.snoop_fanout::min_value               0                       # Request fanout histogram
system.membus.snoop_fanout::max_value               0                       # Request fanout histogram
system.membus.snoop_fanout::total              986563                       # Request fanout histogram
system.membus.reqLayer2.occupancy          3058836000                       # Layer occupancy (ticks)
system.membus.reqLayer2.utilization               0.3                       # Layer utilization (%)
system.membus.respLayer1.occupancy         3351393500                       # Layer occupancy (ticks)
system.membus.respLayer1.utilization              0.3                       # Layer utilization (%)
system.tol2bus.snoop_filter.tot_requests      5598554                       # Total number of requests made to the snoop filter.
system.tol2bus.snoop_filter.hit_single_requests      2797506                       # Number of requests hitting in the snoop filter with a single holder of the requested data.
system.tol2bus.snoop_filter.hit_multi_requests            1                       # Number of requests hitting in the snoop filter with multiple (>1) holders of the requested data.
system.tol2bus.snoop_filter.tot_snoops           1704                       # Total number of snoops made to the snoop filter.
system.tol2bus.snoop_filter.hit_single_snoops         1704                       # Number of snoops hitting in the snoop filter with a single holder of the requested data.
system.tol2bus.snoop_filter.hit_multi_snoops            0                       # Number of snoops hitting in the snoop filter with multiple (>1) holders of the requested data.
system.tol2bus.pwrStateResidencyTicks::UNDEFINED 1099922667500                       # Cumulative time (in ticks) in various power states
system.tol2bus.trans_dist::ReadResp           2045098                       # Transaction distribution
system.tol2bus.trans_dist::WritebackDirty      1855323                       # Transaction distribution
system.tol2bus.trans_dist::WritebackClean          329                       # Transaction distribution
system.tol2bus.trans_dist::CleanEvict         1896267                       # Transaction distribution
system.tol2bus.trans_dist::ReadExReq           755950                       # Transaction distribution
system.tol2bus.trans_dist::ReadExResp          755950                       # Transaction distribution
system.tol2bus.trans_dist::ReadCleanReq          1823                       # Transaction distribution
system.tol2bus.trans_dist::ReadSharedReq      2043275                       # Transaction distribution
system.tol2bus.pkt_count_system.cpu.icache.mem_side::system.l2.cpu_side         3975                       # Packet count per connected master and slave (bytes)
system.tol2bus.pkt_count_system.cpu.dcache.mem_side::system.l2.cpu_side      8395627                       # Packet count per connected master and slave (bytes)
system.tol2bus.pkt_count::total               8399602                       # Packet count per connected master and slave (bytes)
system.tol2bus.pkt_size_system.cpu.icache.mem_side::system.l2.cpu_side        68864                       # Cumulative packet size per connected master and slave (bytes)
system.tol2bus.pkt_size_system.cpu.dcache.mem_side::system.l2.cpu_side    131034144                       # Cumulative packet size per connected master and slave (bytes)
system.tol2bus.pkt_size::total              131103008                       # Cumulative packet size per connected master and slave (bytes)
system.tol2bus.snoops                          954413                       # Total snoops (count)
system.tol2bus.snoopTraffic                  17911392                       # Total snoop traffic (bytes)
system.tol2bus.snoop_fanout::samples          3755461                       # Request fanout histogram
system.tol2bus.snoop_fanout::mean            0.000454                       # Request fanout histogram
system.tol2bus.snoop_fanout::stdev           0.021303                       # Request fanout histogram
system.tol2bus.snoop_fanout::underflows             0      0.00%      0.00% # Request fanout histogram
system.tol2bus.snoop_fanout::0                3753756     99.95%     99.95% # Request fanout histogram
system.tol2bus.snoop_fanout::1                   1705      0.05%    100.00% # Request fanout histogram
system.tol2bus.snoop_fanout::2                      0      0.00%    100.00% # Request fanout histogram
system.tol2bus.snoop_fanout::3                      0      0.00%    100.00% # Request fanout histogram
system.tol2bus.snoop_fanout::4                      0      0.00%    100.00% # Request fanout histogram
system.tol2bus.snoop_fanout::overflows              0      0.00%    100.00% # Request fanout histogram
system.tol2bus.snoop_fanout::min_value              0                       # Request fanout histogram
system.tol2bus.snoop_fanout::max_value              1                       # Request fanout histogram
system.tol2bus.snoop_fanout::total            3755461                       # Request fanout histogram
system.tol2bus.reqLayer0.occupancy         3447237500                       # Layer occupancy (ticks)
system.tol2bus.reqLayer0.utilization              0.3                       # Layer utilization (%)
system.tol2bus.respLayer0.occupancy           1823000                       # Layer occupancy (ticks)
system.tol2bus.respLayer0.utilization             0.0                       # Layer utilization (%)
system.tol2bus.respLayer1.occupancy        2799225000                       # Layer occupancy (ticks)
system.tol2bus.respLayer1.utilization             0.3                       # Layer utilization (%)

---------- End Simulation Statistics   ----------
