
---------- Begin Simulation Statistics ----------
sim_seconds                                  2.386201                       # Number of seconds simulated
sim_ticks                                2386201387500                       # Number of ticks simulated
final_tick                               2386201387500                       # Number of ticks from beginning of simulation (restored from checkpoints and never reset)
sim_freq                                 1000000000000                       # Frequency of simulated ticks
host_inst_rate                                 464503                       # Simulator instruction rate (inst/s)
host_op_rate                                   764912                       # Simulator op (including micro ops) rate (op/s)
host_tick_rate                             2216794977                       # Simulator tick rate (ticks/s)
host_mem_usage                                 670596                       # Number of bytes of host memory used
host_seconds                                  1076.42                       # Real time elapsed on the host
sim_insts                                   500000000                       # Number of instructions simulated
sim_ops                                     823366692                       # Number of ops (including micro ops) simulated
system.voltage_domain.voltage                       1                       # Voltage in Volts
system.clk_domain.clock                          1000                       # Clock period in ticks
system.mem_ctrls.pwrStateResidencyTicks::UNDEFINED 2386201387500                       # Cumulative time (in ticks) in various power states
system.mem_ctrls.bytes_read::cpu.inst          130176                       # Number of bytes read from this memory
system.mem_ctrls.bytes_read::cpu.data       533503232                       # Number of bytes read from this memory
system.mem_ctrls.bytes_read::total          533633408                       # Number of bytes read from this memory
system.mem_ctrls.bytes_inst_read::cpu.inst       130176                       # Number of instructions bytes read from this memory
system.mem_ctrls.bytes_inst_read::total        130176                       # Number of instructions bytes read from this memory
system.mem_ctrls.bytes_written::writebacks    532011200                       # Number of bytes written to this memory
system.mem_ctrls.bytes_written::total       532011200                       # Number of bytes written to this memory
system.mem_ctrls.num_reads::cpu.inst             4068                       # Number of read requests responded to by this memory
system.mem_ctrls.num_reads::cpu.data         16671976                       # Number of read requests responded to by this memory
system.mem_ctrls.num_reads::total            16676044                       # Number of read requests responded to by this memory
system.mem_ctrls.num_writes::writebacks      16625350                       # Number of write requests responded to by this memory
system.mem_ctrls.num_writes::total           16625350                       # Number of write requests responded to by this memory
system.mem_ctrls.bw_read::cpu.inst              54554                       # Total read bandwidth from this memory (bytes/s)
system.mem_ctrls.bw_read::cpu.data          223578460                       # Total read bandwidth from this memory (bytes/s)
system.mem_ctrls.bw_read::total             223633014                       # Total read bandwidth from this memory (bytes/s)
system.mem_ctrls.bw_inst_read::cpu.inst         54554                       # Instruction read bandwidth from this memory (bytes/s)
system.mem_ctrls.bw_inst_read::total            54554                       # Instruction read bandwidth from this memory (bytes/s)
system.mem_ctrls.bw_write::writebacks       222953185                       # Write bandwidth from this memory (bytes/s)
system.mem_ctrls.bw_write::total            222953185                       # Write bandwidth from this memory (bytes/s)
system.mem_ctrls.bw_total::writebacks       222953185                       # Total bandwidth to/from this memory (bytes/s)
system.mem_ctrls.bw_total::cpu.inst             54554                       # Total bandwidth to/from this memory (bytes/s)
system.mem_ctrls.bw_total::cpu.data         223578460                       # Total bandwidth to/from this memory (bytes/s)
system.mem_ctrls.bw_total::total            446586199                       # Total bandwidth to/from this memory (bytes/s)
system.mem_ctrls.readReqs                    16676044                       # Number of read requests accepted
system.mem_ctrls.writeReqs                   16625350                       # Number of write requests accepted
system.mem_ctrls.readBursts                  16676044                       # Number of DRAM read bursts, including those serviced by the write queue
system.mem_ctrls.writeBursts                 16625350                       # Number of DRAM write bursts, including those merged in the write queue
system.mem_ctrls.bytesReadDRAM             1067261632                       # Total number of bytes read from DRAM
system.mem_ctrls.bytesReadWrQ                    5184                       # Total number of bytes read from write queue
system.mem_ctrls.bytesWritten               534534912                       # Total number of bytes written to DRAM
system.mem_ctrls.bytesReadSys               533633408                       # Total read bytes from the system interface side
system.mem_ctrls.bytesWrittenSys            532011200                       # Total written bytes from the system interface side
system.mem_ctrls.servicedByWrQ                     81                       # Number of DRAM read bursts serviced by the write queue
system.mem_ctrls.mergedWrBursts               8273226                       # Number of DRAM write bursts merged with an existing one
system.mem_ctrls.neitherReadNorWriteReqs            0                       # Number of requests that are neither read nor write
system.mem_ctrls.perBankRdBursts::0           1041863                       # Per bank write bursts
system.mem_ctrls.perBankRdBursts::1           1041552                       # Per bank write bursts
system.mem_ctrls.perBankRdBursts::2           1041926                       # Per bank write bursts
system.mem_ctrls.perBankRdBursts::3           1042680                       # Per bank write bursts
system.mem_ctrls.perBankRdBursts::4           1042926                       # Per bank write bursts
system.mem_ctrls.perBankRdBursts::5           1042596                       # Per bank write bursts
system.mem_ctrls.perBankRdBursts::6           1041963                       # Per bank write bursts
system.mem_ctrls.perBankRdBursts::7           1042143                       # Per bank write bursts
system.mem_ctrls.perBankRdBursts::8           1041399                       # Per bank write bursts
system.mem_ctrls.perBankRdBursts::9           1041858                       # Per bank write bursts
system.mem_ctrls.perBankRdBursts::10          1042231                       # Per bank write bursts
system.mem_ctrls.perBankRdBursts::11          1042826                       # Per bank write bursts
system.mem_ctrls.perBankRdBursts::12          1042618                       # Per bank write bursts
system.mem_ctrls.perBankRdBursts::13          1042567                       # Per bank write bursts
system.mem_ctrls.perBankRdBursts::14          1042373                       # Per bank write bursts
system.mem_ctrls.perBankRdBursts::15          1042442                       # Per bank write bursts
system.mem_ctrls.perBankWrBursts::0            521848                       # Per bank write bursts
system.mem_ctrls.perBankWrBursts::1            521621                       # Per bank write bursts
system.mem_ctrls.perBankWrBursts::2            521960                       # Per bank write bursts
system.mem_ctrls.perBankWrBursts::3            522360                       # Per bank write bursts
system.mem_ctrls.perBankWrBursts::4            522107                       # Per bank write bursts
system.mem_ctrls.perBankWrBursts::5            522307                       # Per bank write bursts
system.mem_ctrls.perBankWrBursts::6            521903                       # Per bank write bursts
system.mem_ctrls.perBankWrBursts::7            522039                       # Per bank write bursts
system.mem_ctrls.perBankWrBursts::8            521674                       # Per bank write bursts
system.mem_ctrls.perBankWrBursts::9            521885                       # Per bank write bursts
system.mem_ctrls.perBankWrBursts::10           521958                       # Per bank write bursts
system.mem_ctrls.perBankWrBursts::11           522099                       # Per bank write bursts
system.mem_ctrls.perBankWrBursts::12           522151                       # Per bank write bursts
system.mem_ctrls.perBankWrBursts::13           522238                       # Per bank write bursts
system.mem_ctrls.perBankWrBursts::14           522010                       # Per bank write bursts
system.mem_ctrls.perBankWrBursts::15           521948                       # Per bank write bursts
system.mem_ctrls.numRdRetry                         0                       # Number of times read queue was full causing retry
system.mem_ctrls.numWrRetry                         0                       # Number of times write queue was full causing retry
system.mem_ctrls.totGap                  2386188452500                       # Total gap between requests
system.mem_ctrls.readPktSize::0                     0                       # Read request sizes (log2)
system.mem_ctrls.readPktSize::1                     0                       # Read request sizes (log2)
system.mem_ctrls.readPktSize::2                     0                       # Read request sizes (log2)
system.mem_ctrls.readPktSize::3                     0                       # Read request sizes (log2)
system.mem_ctrls.readPktSize::4                     0                       # Read request sizes (log2)
system.mem_ctrls.readPktSize::5              16676044                       # Read request sizes (log2)
system.mem_ctrls.readPktSize::6                     0                       # Read request sizes (log2)
system.mem_ctrls.writePktSize::0                    0                       # Write request sizes (log2)
system.mem_ctrls.writePktSize::1                    0                       # Write request sizes (log2)
system.mem_ctrls.writePktSize::2                    0                       # Write request sizes (log2)
system.mem_ctrls.writePktSize::3                    0                       # Write request sizes (log2)
system.mem_ctrls.writePktSize::4                    0                       # Write request sizes (log2)
system.mem_ctrls.writePktSize::5             16625350                       # Write request sizes (log2)
system.mem_ctrls.writePktSize::6                    0                       # Write request sizes (log2)
system.mem_ctrls.rdQLenPdf::0                16675962                       # What read queue length does an incoming req see
system.mem_ctrls.rdQLenPdf::1                       1                       # What read queue length does an incoming req see
system.mem_ctrls.rdQLenPdf::2                       0                       # What read queue length does an incoming req see
system.mem_ctrls.rdQLenPdf::3                       0                       # What read queue length does an incoming req see
system.mem_ctrls.rdQLenPdf::4                       0                       # What read queue length does an incoming req see
system.mem_ctrls.rdQLenPdf::5                       0                       # What read queue length does an incoming req see
system.mem_ctrls.rdQLenPdf::6                       0                       # What read queue length does an incoming req see
system.mem_ctrls.rdQLenPdf::7                       0                       # What read queue length does an incoming req see
system.mem_ctrls.rdQLenPdf::8                       0                       # What read queue length does an incoming req see
system.mem_ctrls.rdQLenPdf::9                       0                       # What read queue length does an incoming req see
system.mem_ctrls.rdQLenPdf::10                      0                       # What read queue length does an incoming req see
system.mem_ctrls.rdQLenPdf::11                      0                       # What read queue length does an incoming req see
system.mem_ctrls.rdQLenPdf::12                      0                       # What read queue length does an incoming req see
system.mem_ctrls.rdQLenPdf::13                      0                       # What read queue length does an incoming req see
system.mem_ctrls.rdQLenPdf::14                      0                       # What read queue length does an incoming req see
system.mem_ctrls.rdQLenPdf::15                      0                       # What read queue length does an incoming req see
system.mem_ctrls.rdQLenPdf::16                      0                       # What read queue length does an incoming req see
system.mem_ctrls.rdQLenPdf::17                      0                       # What read queue length does an incoming req see
system.mem_ctrls.rdQLenPdf::18                      0                       # What read queue length does an incoming req see
system.mem_ctrls.rdQLenPdf::19                      0                       # What read queue length does an incoming req see
system.mem_ctrls.rdQLenPdf::20                      0                       # What read queue length does an incoming req see
system.mem_ctrls.rdQLenPdf::21                      0                       # What read queue length does an incoming req see
system.mem_ctrls.rdQLenPdf::22                      0                       # What read queue length does an incoming req see
system.mem_ctrls.rdQLenPdf::23                      0                       # What read queue length does an incoming req see
system.mem_ctrls.rdQLenPdf::24                      0                       # What read queue length does an incoming req see
system.mem_ctrls.rdQLenPdf::25                      0                       # What read queue length does an incoming req see
system.mem_ctrls.rdQLenPdf::26                      0                       # What read queue length does an incoming req see
system.mem_ctrls.rdQLenPdf::27                      0                       # What read queue length does an incoming req see
system.mem_ctrls.rdQLenPdf::28                      0                       # What read queue length does an incoming req see
system.mem_ctrls.rdQLenPdf::29                      0                       # What read queue length does an incoming req see
system.mem_ctrls.rdQLenPdf::30                      0                       # What read queue length does an incoming req see
system.mem_ctrls.rdQLenPdf::31                      0                       # What read queue length does an incoming req see
system.mem_ctrls.wrQLenPdf::0                       1                       # What write queue length does an incoming req see
system.mem_ctrls.wrQLenPdf::1                       1                       # What write queue length does an incoming req see
system.mem_ctrls.wrQLenPdf::2                       1                       # What write queue length does an incoming req see
system.mem_ctrls.wrQLenPdf::3                       1                       # What write queue length does an incoming req see
system.mem_ctrls.wrQLenPdf::4                       1                       # What write queue length does an incoming req see
system.mem_ctrls.wrQLenPdf::5                       1                       # What write queue length does an incoming req see
system.mem_ctrls.wrQLenPdf::6                       1                       # What write queue length does an incoming req see
system.mem_ctrls.wrQLenPdf::7                       1                       # What write queue length does an incoming req see
system.mem_ctrls.wrQLenPdf::8                       1                       # What write queue length does an incoming req see
system.mem_ctrls.wrQLenPdf::9                       1                       # What write queue length does an incoming req see
system.mem_ctrls.wrQLenPdf::10                      1                       # What write queue length does an incoming req see
system.mem_ctrls.wrQLenPdf::11                      1                       # What write queue length does an incoming req see
system.mem_ctrls.wrQLenPdf::12                      1                       # What write queue length does an incoming req see
system.mem_ctrls.wrQLenPdf::13                      1                       # What write queue length does an incoming req see
system.mem_ctrls.wrQLenPdf::14                      1                       # What write queue length does an incoming req see
system.mem_ctrls.wrQLenPdf::15                   3933                       # What write queue length does an incoming req see
system.mem_ctrls.wrQLenPdf::16                   4733                       # What write queue length does an incoming req see
system.mem_ctrls.wrQLenPdf::17                 521361                       # What write queue length does an incoming req see
system.mem_ctrls.wrQLenPdf::18                 521453                       # What write queue length does an incoming req see
system.mem_ctrls.wrQLenPdf::19                 521450                       # What write queue length does an incoming req see
system.mem_ctrls.wrQLenPdf::20                 521452                       # What write queue length does an incoming req see
system.mem_ctrls.wrQLenPdf::21                 521451                       # What write queue length does an incoming req see
system.mem_ctrls.wrQLenPdf::22                 521451                       # What write queue length does an incoming req see
system.mem_ctrls.wrQLenPdf::23                 521452                       # What write queue length does an incoming req see
system.mem_ctrls.wrQLenPdf::24                 521452                       # What write queue length does an incoming req see
system.mem_ctrls.wrQLenPdf::25                 521451                       # What write queue length does an incoming req see
system.mem_ctrls.wrQLenPdf::26                 521452                       # What write queue length does an incoming req see
system.mem_ctrls.wrQLenPdf::27                 521455                       # What write queue length does an incoming req see
system.mem_ctrls.wrQLenPdf::28                 521458                       # What write queue length does an incoming req see
system.mem_ctrls.wrQLenPdf::29                 521739                       # What write queue length does an incoming req see
system.mem_ctrls.wrQLenPdf::30                 521457                       # What write queue length does an incoming req see
system.mem_ctrls.wrQLenPdf::31                 521454                       # What write queue length does an incoming req see
system.mem_ctrls.wrQLenPdf::32                 521451                       # What write queue length does an incoming req see
system.mem_ctrls.wrQLenPdf::33                      2                       # What write queue length does an incoming req see
system.mem_ctrls.wrQLenPdf::34                      1                       # What write queue length does an incoming req see
system.mem_ctrls.wrQLenPdf::35                      1                       # What write queue length does an incoming req see
system.mem_ctrls.wrQLenPdf::36                      0                       # What write queue length does an incoming req see
system.mem_ctrls.wrQLenPdf::37                      0                       # What write queue length does an incoming req see
system.mem_ctrls.wrQLenPdf::38                      0                       # What write queue length does an incoming req see
system.mem_ctrls.wrQLenPdf::39                      0                       # What write queue length does an incoming req see
system.mem_ctrls.wrQLenPdf::40                      0                       # What write queue length does an incoming req see
system.mem_ctrls.wrQLenPdf::41                      0                       # What write queue length does an incoming req see
system.mem_ctrls.wrQLenPdf::42                      0                       # What write queue length does an incoming req see
system.mem_ctrls.wrQLenPdf::43                      0                       # What write queue length does an incoming req see
system.mem_ctrls.wrQLenPdf::44                      0                       # What write queue length does an incoming req see
system.mem_ctrls.wrQLenPdf::45                      0                       # What write queue length does an incoming req see
system.mem_ctrls.wrQLenPdf::46                      0                       # What write queue length does an incoming req see
system.mem_ctrls.wrQLenPdf::47                      0                       # What write queue length does an incoming req see
system.mem_ctrls.wrQLenPdf::48                      0                       # What write queue length does an incoming req see
system.mem_ctrls.wrQLenPdf::49                      0                       # What write queue length does an incoming req see
system.mem_ctrls.wrQLenPdf::50                      0                       # What write queue length does an incoming req see
system.mem_ctrls.wrQLenPdf::51                      0                       # What write queue length does an incoming req see
system.mem_ctrls.wrQLenPdf::52                      0                       # What write queue length does an incoming req see
system.mem_ctrls.wrQLenPdf::53                      0                       # What write queue length does an incoming req see
system.mem_ctrls.wrQLenPdf::54                      0                       # What write queue length does an incoming req see
system.mem_ctrls.wrQLenPdf::55                      0                       # What write queue length does an incoming req see
system.mem_ctrls.wrQLenPdf::56                      0                       # What write queue length does an incoming req see
system.mem_ctrls.wrQLenPdf::57                      0                       # What write queue length does an incoming req see
system.mem_ctrls.wrQLenPdf::58                      0                       # What write queue length does an incoming req see
system.mem_ctrls.wrQLenPdf::59                      0                       # What write queue length does an incoming req see
system.mem_ctrls.wrQLenPdf::60                      0                       # What write queue length does an incoming req see
system.mem_ctrls.wrQLenPdf::61                      0                       # What write queue length does an incoming req see
system.mem_ctrls.wrQLenPdf::62                      0                       # What write queue length does an incoming req see
system.mem_ctrls.wrQLenPdf::63                      0                       # What write queue length does an incoming req see
system.mem_ctrls.bytesPerActivate::samples      2022773                       # Bytes accessed per row activation
system.mem_ctrls.bytesPerActivate::mean    791.881513                       # Bytes accessed per row activation
system.mem_ctrls.bytesPerActivate::gmean   609.041361                       # Bytes accessed per row activation
system.mem_ctrls.bytesPerActivate::stdev   357.673132                       # Bytes accessed per row activation
system.mem_ctrls.bytesPerActivate::0-127       241401     11.93%     11.93% # Bytes accessed per row activation
system.mem_ctrls.bytesPerActivate::128-255        64338      3.18%     15.11% # Bytes accessed per row activation
system.mem_ctrls.bytesPerActivate::256-383        65865      3.26%     18.37% # Bytes accessed per row activation
system.mem_ctrls.bytesPerActivate::384-511        60332      2.98%     21.35% # Bytes accessed per row activation
system.mem_ctrls.bytesPerActivate::512-639       117362      5.80%     27.16% # Bytes accessed per row activation
system.mem_ctrls.bytesPerActivate::640-767        43565      2.15%     29.31% # Bytes accessed per row activation
system.mem_ctrls.bytesPerActivate::768-895        71364      3.53%     32.84% # Bytes accessed per row activation
system.mem_ctrls.bytesPerActivate::896-1023        91176      4.51%     37.34% # Bytes accessed per row activation
system.mem_ctrls.bytesPerActivate::1024-1151      1267370     62.66%    100.00% # Bytes accessed per row activation
system.mem_ctrls.bytesPerActivate::total      2022773                       # Bytes accessed per row activation
system.mem_ctrls.rdPerTurnAround::samples       521451                       # Reads before turning the bus around for writes
system.mem_ctrls.rdPerTurnAround::mean      31.979919                       # Reads before turning the bus around for writes
system.mem_ctrls.rdPerTurnAround::gmean     31.894198                       # Reads before turning the bus around for writes
system.mem_ctrls.rdPerTurnAround::stdev     20.125593                       # Reads before turning the bus around for writes
system.mem_ctrls.rdPerTurnAround::0-511        521443    100.00%    100.00% # Reads before turning the bus around for writes
system.mem_ctrls.rdPerTurnAround::512-1023            1      0.00%    100.00% # Reads before turning the bus around for writes
system.mem_ctrls.rdPerTurnAround::1024-1535            2      0.00%    100.00% # Reads before turning the bus around for writes
system.mem_ctrls.rdPerTurnAround::2048-2559            1      0.00%    100.00% # Reads before turning the bus around for writes
system.mem_ctrls.rdPerTurnAround::2560-3071            1      0.00%    100.00% # Reads before turning the bus around for writes
system.mem_ctrls.rdPerTurnAround::4608-5119            1      0.00%    100.00% # Reads before turning the bus around for writes
system.mem_ctrls.rdPerTurnAround::7168-7679            1      0.00%    100.00% # Reads before turning the bus around for writes
system.mem_ctrls.rdPerTurnAround::10752-11263            1      0.00%    100.00% # Reads before turning the bus around for writes
system.mem_ctrls.rdPerTurnAround::total        521451                       # Reads before turning the bus around for writes
system.mem_ctrls.wrPerTurnAround::samples       521451                       # Writes before turning the bus around for reads
system.mem_ctrls.wrPerTurnAround::mean      16.017052                       # Writes before turning the bus around for reads
system.mem_ctrls.wrPerTurnAround::gmean     16.016085                       # Writes before turning the bus around for reads
system.mem_ctrls.wrPerTurnAround::stdev      0.183217                       # Writes before turning the bus around for reads
system.mem_ctrls.wrPerTurnAround::16           516715     99.09%     99.09% # Writes before turning the bus around for reads
system.mem_ctrls.wrPerTurnAround::17              802      0.15%     99.25% # Writes before turning the bus around for reads
system.mem_ctrls.wrPerTurnAround::18             3715      0.71%     99.96% # Writes before turning the bus around for reads
system.mem_ctrls.wrPerTurnAround::19              217      0.04%    100.00% # Writes before turning the bus around for reads
system.mem_ctrls.wrPerTurnAround::20                1      0.00%    100.00% # Writes before turning the bus around for reads
system.mem_ctrls.wrPerTurnAround::21                1      0.00%    100.00% # Writes before turning the bus around for reads
system.mem_ctrls.wrPerTurnAround::total        521451                       # Writes before turning the bus around for reads
system.mem_ctrls.totQLat                 248083818250                       # Total ticks spent queuing
system.mem_ctrls.totMemAccLat            560758124500                       # Total ticks spent from burst creation until serviced by the DRAM
system.mem_ctrls.totBusLat                83379815000                       # Total ticks spent in databus transfers
system.mem_ctrls.avgQLat                     14876.73                       # Average queueing delay per DRAM burst
system.mem_ctrls.avgBusLat                    5000.00                       # Average bus latency per DRAM burst
system.mem_ctrls.avgMemAccLat                33626.73                       # Average memory access latency per DRAM burst
system.mem_ctrls.avgRdBW                       447.26                       # Average DRAM read bandwidth in MiByte/s
system.mem_ctrls.avgWrBW                       224.01                       # Average achieved write bandwidth in MiByte/s
system.mem_ctrls.avgRdBWSys                    223.63                       # Average system read bandwidth in MiByte/s
system.mem_ctrls.avgWrBWSys                    222.95                       # Average system write bandwidth in MiByte/s
system.mem_ctrls.peakBW                      12800.00                       # Theoretical peak bandwidth in MiByte/s
system.mem_ctrls.busUtil                         5.24                       # Data bus utilization in percentage
system.mem_ctrls.busUtilRead                     3.49                       # Data bus utilization in percentage for reads
system.mem_ctrls.busUtilWrite                    1.75                       # Data bus utilization in percentage for writes
system.mem_ctrls.avgRdQLen                       1.00                       # Average read queue length when enqueuing
system.mem_ctrls.avgWrQLen                      25.34                       # Average write queue length when enqueuing
system.mem_ctrls.readRowHits                 15303430                       # Number of row buffer hits during reads
system.mem_ctrls.writeRowHits                 7701868                       # Number of row buffer hits during writes
system.mem_ctrls.readRowHitRate                 91.77                       # Row buffer hit rate for reads
system.mem_ctrls.writeRowHitRate                92.21                       # Row buffer hit rate for writes
system.mem_ctrls.avgGap                      71654.31                       # Average gap between requests
system.mem_ctrls.pageHitRate                    91.92                       # Row buffer hit rate, read and write combined
system.mem_ctrls_0.actEnergy               7230013980                       # Energy for activate commands per rank (pJ)
system.mem_ctrls_0.preEnergy               3842843565                       # Energy for precharge commands per rank (pJ)
system.mem_ctrls_0.readEnergy             59530813860                       # Energy for read commands per rank (pJ)
system.mem_ctrls_0.writeEnergy            21799476900                       # Energy for write commands per rank (pJ)
system.mem_ctrls_0.refreshEnergy         115300317600.000031                       # Energy for refresh commands per rank (pJ)
system.mem_ctrls_0.actBackEnergy         148201381680                       # Energy for active background per rank (pJ)
system.mem_ctrls_0.preBackEnergy           8919316800                       # Energy for precharge background per rank (pJ)
system.mem_ctrls_0.actPowerDownEnergy    299570168430                       # Energy for active power-down per rank (pJ)
system.mem_ctrls_0.prePowerDownEnergy     97217713440                       # Energy for precharge power-down per rank (pJ)
system.mem_ctrls_0.selfRefreshEnergy     286097460960                       # Energy for self refresh per rank (pJ)
system.mem_ctrls_0.totalEnergy           1047736485075                       # Total energy per rank (pJ)
system.mem_ctrls_0.averagePower            439.081331                       # Core power per rank (mW)
system.mem_ctrls_0.totalIdleTime         2037904704750                       # Total Idle time Per DRAM Rank
system.mem_ctrls_0.memoryStateTime::IDLE  10088271500                       # Time in different power states
system.mem_ctrls_0.memoryStateTime::REF   48950970000                       # Time in different power states
system.mem_ctrls_0.memoryStateTime::SREF 1127787956500                       # Time in different power states
system.mem_ctrls_0.memoryStateTime::PRE_PDN 253171758250                       # Time in different power states
system.mem_ctrls_0.memoryStateTime::ACT  289249101750                       # Time in different power states
system.mem_ctrls_0.memoryStateTime::ACT_PDN 656953329500                       # Time in different power states
system.mem_ctrls_1.actEnergy               7212585240                       # Energy for activate commands per rank (pJ)
system.mem_ctrls_1.preEnergy               3833579970                       # Energy for precharge commands per rank (pJ)
system.mem_ctrls_1.readEnergy             59535561960                       # Energy for read commands per rank (pJ)
system.mem_ctrls_1.writeEnergy            21798526860                       # Energy for write commands per rank (pJ)
system.mem_ctrls_1.refreshEnergy         114067964400.000031                       # Energy for refresh commands per rank (pJ)
system.mem_ctrls_1.actBackEnergy         147764712090                       # Energy for active background per rank (pJ)
system.mem_ctrls_1.preBackEnergy           8844306720                       # Energy for precharge background per rank (pJ)
system.mem_ctrls_1.actPowerDownEnergy    297387727350                       # Energy for active power-down per rank (pJ)
system.mem_ctrls_1.prePowerDownEnergy     95139222720                       # Energy for precharge power-down per rank (pJ)
system.mem_ctrls_1.selfRefreshEnergy     288496339845                       # Energy for self refresh per rank (pJ)
system.mem_ctrls_1.totalEnergy           1044105809955                       # Total energy per rank (pJ)
system.mem_ctrls_1.averagePower            437.559802                       # Core power per rank (mW)
system.mem_ctrls_1.totalIdleTime         2039067204000                       # Total Idle time Per DRAM Rank
system.mem_ctrls_1.memoryStateTime::IDLE   9925523500                       # Time in different power states
system.mem_ctrls_1.memoryStateTime::REF   48425980000                       # Time in different power states
system.mem_ctrls_1.memoryStateTime::SREF 1139143491000                       # Time in different power states
system.mem_ctrls_1.memoryStateTime::PRE_PDN 247758959000                       # Time in different power states
system.mem_ctrls_1.memoryStateTime::ACT  288780209250                       # Time in different power states
system.mem_ctrls_1.memoryStateTime::ACT_PDN 652167224750                       # Time in different power states
system.pwrStateResidencyTicks::UNDEFINED 2386201387500                       # Cumulative time (in ticks) in various power states
system.cpu_voltage_domain.voltage                   1                       # Voltage in Volts
system.cpu_clk_domain.clock                       500                       # Clock period in ticks
system.cpu.dtb.walker.pwrStateResidencyTicks::UNDEFINED 2386201387500                       # Cumulative time (in ticks) in various power states
system.cpu.apic_clk_domain.clock                 8000                       # Clock period in ticks
system.cpu.interrupts.pwrStateResidencyTicks::UNDEFINED 2386201387500                       # Cumulative time (in ticks) in various power states
system.cpu.itb.walker.pwrStateResidencyTicks::UNDEFINED 2386201387500                       # Cumulative time (in ticks) in various power states
system.cpu.workload.num_syscalls                  196                       # Number of system calls
system.cpu.pwrStateResidencyTicks::ON    2386201387500                       # Cumulative time (in ticks) in various power states
system.cpu.numCycles                       4772402775                       # number of cpu cycles simulated
system.cpu.numWorkItemsStarted                      0                       # number of work items this cpu started
system.cpu.numWorkItemsCompleted                    0                       # number of work items this cpu completed
system.cpu.committedInsts                   500000000                       # Number of instructions committed
system.cpu.committedOps                     823366692                       # Number of ops (including micro ops) committed
system.cpu.num_int_alu_accesses             821415783                       # Number of integer alu accesses
system.cpu.num_fp_alu_accesses               66619246                       # Number of float alu accesses
system.cpu.num_func_calls                     5652773                       # number of times a function call or return occured
system.cpu.num_conditional_control_insts     57208853                       # number of instructions that are conditional controls
system.cpu.num_int_insts                    821415783                       # number of integer instructions
system.cpu.num_fp_insts                      66619246                       # number of float instructions
system.cpu.num_int_register_reads          1637209917                       # number of times the integer registers were read
system.cpu.num_int_register_writes          639871082                       # number of times the integer registers were written
system.cpu.num_fp_register_reads             66766836                       # number of times the floating registers were read
system.cpu.num_fp_register_writes              208042                       # number of times the floating registers were written
system.cpu.num_cc_register_reads            319714243                       # number of times the CC registers were read
system.cpu.num_cc_register_writes           287984022                       # number of times the CC registers were written
system.cpu.num_mem_refs                     271673939                       # number of memory refs
system.cpu.num_load_insts                   157213791                       # Number of load instructions
system.cpu.num_store_insts                  114460148                       # Number of store instructions
system.cpu.num_idle_cycles                          0                       # Number of idle cycles
system.cpu.num_busy_cycles                 4772402775                       # Number of busy cycles
system.cpu.not_idle_fraction                        1                       # Percentage of non-idle cycles
system.cpu.idle_fraction                            0                       # Percentage of idle cycles
system.cpu.Branches                          69678400                       # Number of branches fetched
system.cpu.op_class::No_OpClass                202234      0.02%      0.02% # Class of executed instruction
system.cpu.op_class::IntAlu                 550028817     66.80%     66.83% # Class of executed instruction
system.cpu.op_class::IntMult                   125092      0.02%     66.84% # Class of executed instruction
system.cpu.op_class::IntDiv                   1153479      0.14%     66.98% # Class of executed instruction
system.cpu.op_class::FloatAdd                  183131      0.02%     67.00% # Class of executed instruction
system.cpu.op_class::FloatCmp                       0      0.00%     67.00% # Class of executed instruction
system.cpu.op_class::FloatCvt                       0      0.00%     67.00% # Class of executed instruction
system.cpu.op_class::FloatMult                      0      0.00%     67.00% # Class of executed instruction
system.cpu.op_class::FloatDiv                       0      0.00%     67.00% # Class of executed instruction
system.cpu.op_class::FloatSqrt                      0      0.00%     67.00% # Class of executed instruction
system.cpu.op_class::SimdAdd                        0      0.00%     67.00% # Class of executed instruction
system.cpu.op_class::SimdAddAcc                     0      0.00%     67.00% # Class of executed instruction
system.cpu.op_class::SimdAlu                        0      0.00%     67.00% # Class of executed instruction
system.cpu.op_class::SimdCmp                        0      0.00%     67.00% # Class of executed instruction
system.cpu.op_class::SimdCvt                        0      0.00%     67.00% # Class of executed instruction
system.cpu.op_class::SimdMisc                       0      0.00%     67.00% # Class of executed instruction
system.cpu.op_class::SimdMult                       0      0.00%     67.00% # Class of executed instruction
system.cpu.op_class::SimdMultAcc                    0      0.00%     67.00% # Class of executed instruction
system.cpu.op_class::SimdShift                      0      0.00%     67.00% # Class of executed instruction
system.cpu.op_class::SimdShiftAcc                   0      0.00%     67.00% # Class of executed instruction
system.cpu.op_class::SimdSqrt                       0      0.00%     67.00% # Class of executed instruction
system.cpu.op_class::SimdFloatAdd                   0      0.00%     67.00% # Class of executed instruction
system.cpu.op_class::SimdFloatAlu                   0      0.00%     67.00% # Class of executed instruction
system.cpu.op_class::SimdFloatCmp                   0      0.00%     67.00% # Class of executed instruction
system.cpu.op_class::SimdFloatCvt                   0      0.00%     67.00% # Class of executed instruction
system.cpu.op_class::SimdFloatDiv                   0      0.00%     67.00% # Class of executed instruction
system.cpu.op_class::SimdFloatMisc                  0      0.00%     67.00% # Class of executed instruction
system.cpu.op_class::SimdFloatMult                  0      0.00%     67.00% # Class of executed instruction
system.cpu.op_class::SimdFloatMultAcc               0      0.00%     67.00% # Class of executed instruction
system.cpu.op_class::SimdFloatSqrt                  0      0.00%     67.00% # Class of executed instruction
system.cpu.op_class::MemRead                157213791     19.09%     86.10% # Class of executed instruction
system.cpu.op_class::MemWrite               114460148     13.90%    100.00% # Class of executed instruction
system.cpu.op_class::IprAccess                      0      0.00%    100.00% # Class of executed instruction
system.cpu.op_class::InstPrefetch                   0      0.00%    100.00% # Class of executed instruction
system.cpu.op_class::total                  823366692                       # Class of executed instruction
system.cpu.dcache.tags.pwrStateResidencyTicks::UNDEFINED 2386201387500                       # Cumulative time (in ticks) in various power states
system.cpu.dcache.tags.replacements          16704261                       # number of replacements
system.cpu.dcache.tags.tagsinuse          4091.669755                       # Cycle average of tags in use
system.cpu.dcache.tags.total_refs           254966199                       # Total number of references to valid blocks.
system.cpu.dcache.tags.sampled_refs          16708357                       # Sample count of references to valid blocks.
system.cpu.dcache.tags.avg_refs             15.259801                       # Average number of references to valid blocks.
system.cpu.dcache.tags.warmup_cycle        8174939500                       # Cycle when the warmup percentage was hit.
system.cpu.dcache.tags.occ_blocks::cpu.data  4091.669755                       # Average occupied blocks per requestor
system.cpu.dcache.tags.occ_percent::cpu.data     0.998943                       # Average percentage of cache occupancy
system.cpu.dcache.tags.occ_percent::total     0.998943                       # Average percentage of cache occupancy
system.cpu.dcache.tags.occ_task_id_blocks::1024         4096                       # Occupied blocks per task id
system.cpu.dcache.tags.age_task_id_blocks_1024::1           21                       # Occupied blocks per task id
system.cpu.dcache.tags.age_task_id_blocks_1024::2          111                       # Occupied blocks per task id
system.cpu.dcache.tags.age_task_id_blocks_1024::3          966                       # Occupied blocks per task id
system.cpu.dcache.tags.age_task_id_blocks_1024::4         2998                       # Occupied blocks per task id
system.cpu.dcache.tags.occ_task_id_percent::1024            1                       # Percentage of cache occupancy per task id
system.cpu.dcache.tags.tag_accesses         560057469                       # Number of tag accesses
system.cpu.dcache.tags.data_accesses        560057469                       # Number of data accesses
system.cpu.dcache.pwrStateResidencyTicks::UNDEFINED 2386201387500                       # Cumulative time (in ticks) in various power states
system.cpu.dcache.ReadReq_hits::cpu.data    157108866                       # number of ReadReq hits
system.cpu.dcache.ReadReq_hits::total       157108866                       # number of ReadReq hits
system.cpu.dcache.WriteReq_hits::cpu.data     97857333                       # number of WriteReq hits
system.cpu.dcache.WriteReq_hits::total       97857333                       # number of WriteReq hits
system.cpu.dcache.demand_hits::cpu.data     254966199                       # number of demand (read+write) hits
system.cpu.dcache.demand_hits::total        254966199                       # number of demand (read+write) hits
system.cpu.dcache.overall_hits::cpu.data    254966199                       # number of overall hits
system.cpu.dcache.overall_hits::total       254966199                       # number of overall hits
system.cpu.dcache.ReadReq_misses::cpu.data       105529                       # number of ReadReq misses
system.cpu.dcache.ReadReq_misses::total        105529                       # number of ReadReq misses
system.cpu.dcache.WriteReq_misses::cpu.data     16602828                       # number of WriteReq misses
system.cpu.dcache.WriteReq_misses::total     16602828                       # number of WriteReq misses
system.cpu.dcache.demand_misses::cpu.data     16708357                       # number of demand (read+write) misses
system.cpu.dcache.demand_misses::total       16708357                       # number of demand (read+write) misses
system.cpu.dcache.overall_misses::cpu.data     16708357                       # number of overall misses
system.cpu.dcache.overall_misses::total      16708357                       # number of overall misses
system.cpu.dcache.ReadReq_miss_latency::cpu.data  26006960000                       # number of ReadReq miss cycles
system.cpu.dcache.ReadReq_miss_latency::total  26006960000                       # number of ReadReq miss cycles
system.cpu.dcache.WriteReq_miss_latency::cpu.data 1422885356500                       # number of WriteReq miss cycles
system.cpu.dcache.WriteReq_miss_latency::total 1422885356500                       # number of WriteReq miss cycles
system.cpu.dcache.demand_miss_latency::cpu.data 1448892316500                       # number of demand (read+write) miss cycles
system.cpu.dcache.demand_miss_latency::total 1448892316500                       # number of demand (read+write) miss cycles
system.cpu.dcache.overall_miss_latency::cpu.data 1448892316500                       # number of overall miss cycles
system.cpu.dcache.overall_miss_latency::total 1448892316500                       # number of overall miss cycles
system.cpu.dcache.ReadReq_accesses::cpu.data    157214395                       # number of ReadReq accesses(hits+misses)
system.cpu.dcache.ReadReq_accesses::total    157214395                       # number of ReadReq accesses(hits+misses)
system.cpu.dcache.WriteReq_accesses::cpu.data    114460161                       # number of WriteReq accesses(hits+misses)
system.cpu.dcache.WriteReq_accesses::total    114460161                       # number of WriteReq accesses(hits+misses)
system.cpu.dcache.demand_accesses::cpu.data    271674556                       # number of demand (read+write) accesses
system.cpu.dcache.demand_accesses::total    271674556                       # number of demand (read+write) accesses
system.cpu.dcache.overall_accesses::cpu.data    271674556                       # number of overall (read+write) accesses
system.cpu.dcache.overall_accesses::total    271674556                       # number of overall (read+write) accesses
system.cpu.dcache.ReadReq_miss_rate::cpu.data     0.000671                       # miss rate for ReadReq accesses
system.cpu.dcache.ReadReq_miss_rate::total     0.000671                       # miss rate for ReadReq accesses
system.cpu.dcache.WriteReq_miss_rate::cpu.data     0.145053                       # miss rate for WriteReq accesses
system.cpu.dcache.WriteReq_miss_rate::total     0.145053                       # miss rate for WriteReq accesses
system.cpu.dcache.demand_miss_rate::cpu.data     0.061501                       # miss rate for demand accesses
system.cpu.dcache.demand_miss_rate::total     0.061501                       # miss rate for demand accesses
system.cpu.dcache.overall_miss_rate::cpu.data     0.061501                       # miss rate for overall accesses
system.cpu.dcache.overall_miss_rate::total     0.061501                       # miss rate for overall accesses
system.cpu.dcache.ReadReq_avg_miss_latency::cpu.data 246443.726369                       # average ReadReq miss latency
system.cpu.dcache.ReadReq_avg_miss_latency::total 246443.726369                       # average ReadReq miss latency
system.cpu.dcache.WriteReq_avg_miss_latency::cpu.data 85701.385119                       # average WriteReq miss latency
system.cpu.dcache.WriteReq_avg_miss_latency::total 85701.385119                       # average WriteReq miss latency
system.cpu.dcache.demand_avg_miss_latency::cpu.data 86716.624292                       # average overall miss latency
system.cpu.dcache.demand_avg_miss_latency::total 86716.624292                       # average overall miss latency
system.cpu.dcache.overall_avg_miss_latency::cpu.data 86716.624292                       # average overall miss latency
system.cpu.dcache.overall_avg_miss_latency::total 86716.624292                       # average overall miss latency
system.cpu.dcache.blocked_cycles::no_mshrs            0                       # number of cycles access was blocked
system.cpu.dcache.blocked_cycles::no_targets            0                       # number of cycles access was blocked
system.cpu.dcache.blocked::no_mshrs                 0                       # number of cycles access was blocked
system.cpu.dcache.blocked::no_targets               0                       # number of cycles access was blocked
system.cpu.dcache.avg_blocked_cycles::no_mshrs          nan                       # average number of cycles each access was blocked
system.cpu.dcache.avg_blocked_cycles::no_targets          nan                       # average number of cycles each access was blocked
system.cpu.dcache.writebacks::writebacks     16676481                       # number of writebacks
system.cpu.dcache.writebacks::total          16676481                       # number of writebacks
system.cpu.dcache.ReadReq_mshr_misses::cpu.data       105529                       # number of ReadReq MSHR misses
system.cpu.dcache.ReadReq_mshr_misses::total       105529                       # number of ReadReq MSHR misses
system.cpu.dcache.WriteReq_mshr_misses::cpu.data     16602828                       # number of WriteReq MSHR misses
system.cpu.dcache.WriteReq_mshr_misses::total     16602828                       # number of WriteReq MSHR misses
system.cpu.dcache.demand_mshr_misses::cpu.data     16708357                       # number of demand (read+write) MSHR misses
system.cpu.dcache.demand_mshr_misses::total     16708357                       # number of demand (read+write) MSHR misses
system.cpu.dcache.overall_mshr_misses::cpu.data     16708357                       # number of overall MSHR misses
system.cpu.dcache.overall_mshr_misses::total     16708357                       # number of overall MSHR misses
system.cpu.dcache.ReadReq_mshr_miss_latency::cpu.data  25901431000                       # number of ReadReq MSHR miss cycles
system.cpu.dcache.ReadReq_mshr_miss_latency::total  25901431000                       # number of ReadReq MSHR miss cycles
system.cpu.dcache.WriteReq_mshr_miss_latency::cpu.data 1406282528500                       # number of WriteReq MSHR miss cycles
system.cpu.dcache.WriteReq_mshr_miss_latency::total 1406282528500                       # number of WriteReq MSHR miss cycles
system.cpu.dcache.demand_mshr_miss_latency::cpu.data 1432183959500                       # number of demand (read+write) MSHR miss cycles
system.cpu.dcache.demand_mshr_miss_latency::total 1432183959500                       # number of demand (read+write) MSHR miss cycles
system.cpu.dcache.overall_mshr_miss_latency::cpu.data 1432183959500                       # number of overall MSHR miss cycles
system.cpu.dcache.overall_mshr_miss_latency::total 1432183959500                       # number of overall MSHR miss cycles
system.cpu.dcache.ReadReq_mshr_miss_rate::cpu.data     0.000671                       # mshr miss rate for ReadReq accesses
system.cpu.dcache.ReadReq_mshr_miss_rate::total     0.000671                       # mshr miss rate for ReadReq accesses
system.cpu.dcache.WriteReq_mshr_miss_rate::cpu.data     0.145053                       # mshr miss rate for WriteReq accesses
system.cpu.dcache.WriteReq_mshr_miss_rate::total     0.145053                       # mshr miss rate for WriteReq accesses
system.cpu.dcache.demand_mshr_miss_rate::cpu.data     0.061501                       # mshr miss rate for demand accesses
system.cpu.dcache.demand_mshr_miss_rate::total     0.061501                       # mshr miss rate for demand accesses
system.cpu.dcache.overall_mshr_miss_rate::cpu.data     0.061501                       # mshr miss rate for overall accesses
system.cpu.dcache.overall_mshr_miss_rate::total     0.061501                       # mshr miss rate for overall accesses
system.cpu.dcache.ReadReq_avg_mshr_miss_latency::cpu.data 245443.726369                       # average ReadReq mshr miss latency
system.cpu.dcache.ReadReq_avg_mshr_miss_latency::total 245443.726369                       # average ReadReq mshr miss latency
system.cpu.dcache.WriteReq_avg_mshr_miss_latency::cpu.data 84701.385119                       # average WriteReq mshr miss latency
system.cpu.dcache.WriteReq_avg_mshr_miss_latency::total 84701.385119                       # average WriteReq mshr miss latency
system.cpu.dcache.demand_avg_mshr_miss_latency::cpu.data 85716.624292                       # average overall mshr miss latency
system.cpu.dcache.demand_avg_mshr_miss_latency::total 85716.624292                       # average overall mshr miss latency
system.cpu.dcache.overall_avg_mshr_miss_latency::cpu.data 85716.624292                       # average overall mshr miss latency
system.cpu.dcache.overall_avg_mshr_miss_latency::total 85716.624292                       # average overall mshr miss latency
system.cpu.dtb_walker_cache.tags.pwrStateResidencyTicks::UNDEFINED 2386201387500                       # Cumulative time (in ticks) in various power states
system.cpu.dtb_walker_cache.tags.replacements            0                       # number of replacements
system.cpu.dtb_walker_cache.tags.tagsinuse            0                       # Cycle average of tags in use
system.cpu.dtb_walker_cache.tags.total_refs            0                       # Total number of references to valid blocks.
system.cpu.dtb_walker_cache.tags.sampled_refs            0                       # Sample count of references to valid blocks.
system.cpu.dtb_walker_cache.tags.avg_refs          nan                       # Average number of references to valid blocks.
system.cpu.dtb_walker_cache.tags.warmup_cycle            0                       # Cycle when the warmup percentage was hit.
system.cpu.dtb_walker_cache.tags.tag_accesses            0                       # Number of tag accesses
system.cpu.dtb_walker_cache.tags.data_accesses            0                       # Number of data accesses
system.cpu.dtb_walker_cache.pwrStateResidencyTicks::UNDEFINED 2386201387500                       # Cumulative time (in ticks) in various power states
system.cpu.dtb_walker_cache.blocked_cycles::no_mshrs            0                       # number of cycles access was blocked
system.cpu.dtb_walker_cache.blocked_cycles::no_targets            0                       # number of cycles access was blocked
system.cpu.dtb_walker_cache.blocked::no_mshrs            0                       # number of cycles access was blocked
system.cpu.dtb_walker_cache.blocked::no_targets            0                       # number of cycles access was blocked
system.cpu.dtb_walker_cache.avg_blocked_cycles::no_mshrs          nan                       # average number of cycles each access was blocked
system.cpu.dtb_walker_cache.avg_blocked_cycles::no_targets          nan                       # average number of cycles each access was blocked
system.cpu.icache.tags.pwrStateResidencyTicks::UNDEFINED 2386201387500                       # Cumulative time (in ticks) in various power states
system.cpu.icache.tags.replacements            534824                       # number of replacements
system.cpu.icache.tags.tagsinuse          1235.519764                       # Cycle average of tags in use
system.cpu.icache.tags.total_refs           674816946                       # Total number of references to valid blocks.
system.cpu.icache.tags.sampled_refs            536711                       # Sample count of references to valid blocks.
system.cpu.icache.tags.avg_refs           1257.319015                       # Average number of references to valid blocks.
system.cpu.icache.tags.warmup_cycle                 0                       # Cycle when the warmup percentage was hit.
system.cpu.icache.tags.occ_blocks::cpu.inst  1235.519764                       # Average occupied blocks per requestor
system.cpu.icache.tags.occ_percent::cpu.inst     0.603281                       # Average percentage of cache occupancy
system.cpu.icache.tags.occ_percent::total     0.603281                       # Average percentage of cache occupancy
system.cpu.icache.tags.occ_task_id_blocks::1024         1887                       # Occupied blocks per task id
system.cpu.icache.tags.age_task_id_blocks_1024::1           67                       # Occupied blocks per task id
system.cpu.icache.tags.age_task_id_blocks_1024::2           32                       # Occupied blocks per task id
system.cpu.icache.tags.age_task_id_blocks_1024::3           45                       # Occupied blocks per task id
system.cpu.icache.tags.age_task_id_blocks_1024::4         1743                       # Occupied blocks per task id
system.cpu.icache.tags.occ_task_id_percent::1024     0.921387                       # Percentage of cache occupancy per task id
system.cpu.icache.tags.tag_accesses        1351244025                       # Number of tag accesses
system.cpu.icache.tags.data_accesses       1351244025                       # Number of data accesses
system.cpu.icache.pwrStateResidencyTicks::UNDEFINED 2386201387500                       # Cumulative time (in ticks) in various power states
system.cpu.icache.ReadReq_hits::cpu.inst    674816946                       # number of ReadReq hits
system.cpu.icache.ReadReq_hits::total       674816946                       # number of ReadReq hits
system.cpu.icache.demand_hits::cpu.inst     674816946                       # number of demand (read+write) hits
system.cpu.icache.demand_hits::total        674816946                       # number of demand (read+write) hits
system.cpu.icache.overall_hits::cpu.inst    674816946                       # number of overall hits
system.cpu.icache.overall_hits::total       674816946                       # number of overall hits
system.cpu.icache.ReadReq_misses::cpu.inst       536711                       # number of ReadReq misses
system.cpu.icache.ReadReq_misses::total        536711                       # number of ReadReq misses
system.cpu.icache.demand_misses::cpu.inst       536711                       # number of demand (read+write) misses
system.cpu.icache.demand_misses::total         536711                       # number of demand (read+write) misses
system.cpu.icache.overall_misses::cpu.inst       536711                       # number of overall misses
system.cpu.icache.overall_misses::total        536711                       # number of overall misses
system.cpu.icache.ReadReq_miss_latency::cpu.inst   7526353500                       # number of ReadReq miss cycles
system.cpu.icache.ReadReq_miss_latency::total   7526353500                       # number of ReadReq miss cycles
system.cpu.icache.demand_miss_latency::cpu.inst   7526353500                       # number of demand (read+write) miss cycles
system.cpu.icache.demand_miss_latency::total   7526353500                       # number of demand (read+write) miss cycles
system.cpu.icache.overall_miss_latency::cpu.inst   7526353500                       # number of overall miss cycles
system.cpu.icache.overall_miss_latency::total   7526353500                       # number of overall miss cycles
system.cpu.icache.ReadReq_accesses::cpu.inst    675353657                       # number of ReadReq accesses(hits+misses)
system.cpu.icache.ReadReq_accesses::total    675353657                       # number of ReadReq accesses(hits+misses)
system.cpu.icache.demand_accesses::cpu.inst    675353657                       # number of demand (read+write) accesses
system.cpu.icache.demand_accesses::total    675353657                       # number of demand (read+write) accesses
system.cpu.icache.overall_accesses::cpu.inst    675353657                       # number of overall (read+write) accesses
system.cpu.icache.overall_accesses::total    675353657                       # number of overall (read+write) accesses
system.cpu.icache.ReadReq_miss_rate::cpu.inst     0.000795                       # miss rate for ReadReq accesses
system.cpu.icache.ReadReq_miss_rate::total     0.000795                       # miss rate for ReadReq accesses
system.cpu.icache.demand_miss_rate::cpu.inst     0.000795                       # miss rate for demand accesses
system.cpu.icache.demand_miss_rate::total     0.000795                       # miss rate for demand accesses
system.cpu.icache.overall_miss_rate::cpu.inst     0.000795                       # miss rate for overall accesses
system.cpu.icache.overall_miss_rate::total     0.000795                       # miss rate for overall accesses
system.cpu.icache.ReadReq_avg_miss_latency::cpu.inst 14023.102750                       # average ReadReq miss latency
system.cpu.icache.ReadReq_avg_miss_latency::total 14023.102750                       # average ReadReq miss latency
system.cpu.icache.demand_avg_miss_latency::cpu.inst 14023.102750                       # average overall miss latency
system.cpu.icache.demand_avg_miss_latency::total 14023.102750                       # average overall miss latency
system.cpu.icache.overall_avg_miss_latency::cpu.inst 14023.102750                       # average overall miss latency
system.cpu.icache.overall_avg_miss_latency::total 14023.102750                       # average overall miss latency
system.cpu.icache.blocked_cycles::no_mshrs            0                       # number of cycles access was blocked
system.cpu.icache.blocked_cycles::no_targets            0                       # number of cycles access was blocked
system.cpu.icache.blocked::no_mshrs                 0                       # number of cycles access was blocked
system.cpu.icache.blocked::no_targets               0                       # number of cycles access was blocked
system.cpu.icache.avg_blocked_cycles::no_mshrs          nan                       # average number of cycles each access was blocked
system.cpu.icache.avg_blocked_cycles::no_targets          nan                       # average number of cycles each access was blocked
system.cpu.icache.writebacks::writebacks       534824                       # number of writebacks
system.cpu.icache.writebacks::total            534824                       # number of writebacks
system.cpu.icache.ReadReq_mshr_misses::cpu.inst       536711                       # number of ReadReq MSHR misses
system.cpu.icache.ReadReq_mshr_misses::total       536711                       # number of ReadReq MSHR misses
system.cpu.icache.demand_mshr_misses::cpu.inst       536711                       # number of demand (read+write) MSHR misses
system.cpu.icache.demand_mshr_misses::total       536711                       # number of demand (read+write) MSHR misses
system.cpu.icache.overall_mshr_misses::cpu.inst       536711                       # number of overall MSHR misses
system.cpu.icache.overall_mshr_misses::total       536711                       # number of overall MSHR misses
system.cpu.icache.ReadReq_mshr_miss_latency::cpu.inst   6989642500                       # number of ReadReq MSHR miss cycles
system.cpu.icache.ReadReq_mshr_miss_latency::total   6989642500                       # number of ReadReq MSHR miss cycles
system.cpu.icache.demand_mshr_miss_latency::cpu.inst   6989642500                       # number of demand (read+write) MSHR miss cycles
system.cpu.icache.demand_mshr_miss_latency::total   6989642500                       # number of demand (read+write) MSHR miss cycles
system.cpu.icache.overall_mshr_miss_latency::cpu.inst   6989642500                       # number of overall MSHR miss cycles
system.cpu.icache.overall_mshr_miss_latency::total   6989642500                       # number of overall MSHR miss cycles
system.cpu.icache.ReadReq_mshr_miss_rate::cpu.inst     0.000795                       # mshr miss rate for ReadReq accesses
system.cpu.icache.ReadReq_mshr_miss_rate::total     0.000795                       # mshr miss rate for ReadReq accesses
system.cpu.icache.demand_mshr_miss_rate::cpu.inst     0.000795                       # mshr miss rate for demand accesses
system.cpu.icache.demand_mshr_miss_rate::total     0.000795                       # mshr miss rate for demand accesses
system.cpu.icache.overall_mshr_miss_rate::cpu.inst     0.000795                       # mshr miss rate for overall accesses
system.cpu.icache.overall_mshr_miss_rate::total     0.000795                       # mshr miss rate for overall accesses
system.cpu.icache.ReadReq_avg_mshr_miss_latency::cpu.inst 13023.102750                       # average ReadReq mshr miss latency
system.cpu.icache.ReadReq_avg_mshr_miss_latency::total 13023.102750                       # average ReadReq mshr miss latency
system.cpu.icache.demand_avg_mshr_miss_latency::cpu.inst 13023.102750                       # average overall mshr miss latency
system.cpu.icache.demand_avg_mshr_miss_latency::total 13023.102750                       # average overall mshr miss latency
system.cpu.icache.overall_avg_mshr_miss_latency::cpu.inst 13023.102750                       # average overall mshr miss latency
system.cpu.icache.overall_avg_mshr_miss_latency::total 13023.102750                       # average overall mshr miss latency
system.cpu.itb_walker_cache.tags.pwrStateResidencyTicks::UNDEFINED 2386201387500                       # Cumulative time (in ticks) in various power states
system.cpu.itb_walker_cache.tags.replacements            0                       # number of replacements
system.cpu.itb_walker_cache.tags.tagsinuse            0                       # Cycle average of tags in use
system.cpu.itb_walker_cache.tags.total_refs            0                       # Total number of references to valid blocks.
system.cpu.itb_walker_cache.tags.sampled_refs            0                       # Sample count of references to valid blocks.
system.cpu.itb_walker_cache.tags.avg_refs          nan                       # Average number of references to valid blocks.
system.cpu.itb_walker_cache.tags.warmup_cycle            0                       # Cycle when the warmup percentage was hit.
system.cpu.itb_walker_cache.tags.tag_accesses            0                       # Number of tag accesses
system.cpu.itb_walker_cache.tags.data_accesses            0                       # Number of data accesses
system.cpu.itb_walker_cache.pwrStateResidencyTicks::UNDEFINED 2386201387500                       # Cumulative time (in ticks) in various power states
system.cpu.itb_walker_cache.blocked_cycles::no_mshrs            0                       # number of cycles access was blocked
system.cpu.itb_walker_cache.blocked_cycles::no_targets            0                       # number of cycles access was blocked
system.cpu.itb_walker_cache.blocked::no_mshrs            0                       # number of cycles access was blocked
system.cpu.itb_walker_cache.blocked::no_targets            0                       # number of cycles access was blocked
system.cpu.itb_walker_cache.avg_blocked_cycles::no_mshrs          nan                       # average number of cycles each access was blocked
system.cpu.itb_walker_cache.avg_blocked_cycles::no_targets          nan                       # average number of cycles each access was blocked
system.l2.tags.pwrStateResidencyTicks::UNDEFINED 2386201387500                       # Cumulative time (in ticks) in various power states
system.l2.tags.replacements                  16666363                       # number of replacements
system.l2.tags.tagsinuse                 32652.022647                       # Cycle average of tags in use
system.l2.tags.total_refs                    17779552                       # Total number of references to valid blocks.
system.l2.tags.sampled_refs                  16699131                       # Sample count of references to valid blocks.
system.l2.tags.avg_refs                      1.064699                       # Average number of references to valid blocks.
system.l2.tags.warmup_cycle               11057408000                       # Cycle when the warmup percentage was hit.
system.l2.tags.occ_blocks::writebacks      899.883002                       # Average occupied blocks per requestor
system.l2.tags.occ_blocks::cpu.inst        244.411164                       # Average occupied blocks per requestor
system.l2.tags.occ_blocks::cpu.data      31507.728481                       # Average occupied blocks per requestor
system.l2.tags.occ_percent::writebacks       0.027462                       # Average percentage of cache occupancy
system.l2.tags.occ_percent::cpu.inst         0.007459                       # Average percentage of cache occupancy
system.l2.tags.occ_percent::cpu.data         0.961540                       # Average percentage of cache occupancy
system.l2.tags.occ_percent::total            0.996461                       # Average percentage of cache occupancy
system.l2.tags.occ_task_id_blocks::1024         32768                       # Occupied blocks per task id
system.l2.tags.age_task_id_blocks_1024::1           11                       # Occupied blocks per task id
system.l2.tags.age_task_id_blocks_1024::2          100                       # Occupied blocks per task id
system.l2.tags.age_task_id_blocks_1024::3         1021                       # Occupied blocks per task id
system.l2.tags.age_task_id_blocks_1024::4        31636                       # Occupied blocks per task id
system.l2.tags.occ_task_id_percent::1024            1                       # Percentage of cache occupancy per task id
system.l2.tags.tag_accesses                  51183284                       # Number of tag accesses
system.l2.tags.data_accesses                 51183284                       # Number of data accesses
system.l2.pwrStateResidencyTicks::UNDEFINED 2386201387500                       # Cumulative time (in ticks) in various power states
system.l2.WritebackDirty_hits::writebacks     16676481                       # number of WritebackDirty hits
system.l2.WritebackDirty_hits::total         16676481                       # number of WritebackDirty hits
system.l2.WritebackClean_hits::writebacks       534824                       # number of WritebackClean hits
system.l2.WritebackClean_hits::total           534824                       # number of WritebackClean hits
system.l2.ReadExReq_hits::cpu.data              14029                       # number of ReadExReq hits
system.l2.ReadExReq_hits::total                 14029                       # number of ReadExReq hits
system.l2.ReadCleanReq_hits::cpu.inst          532643                       # number of ReadCleanReq hits
system.l2.ReadCleanReq_hits::total             532643                       # number of ReadCleanReq hits
system.l2.ReadSharedReq_hits::cpu.data          22352                       # number of ReadSharedReq hits
system.l2.ReadSharedReq_hits::total             22352                       # number of ReadSharedReq hits
system.l2.demand_hits::cpu.inst                532643                       # number of demand (read+write) hits
system.l2.demand_hits::cpu.data                 36381                       # number of demand (read+write) hits
system.l2.demand_hits::total                   569024                       # number of demand (read+write) hits
system.l2.overall_hits::cpu.inst               532643                       # number of overall hits
system.l2.overall_hits::cpu.data                36381                       # number of overall hits
system.l2.overall_hits::total                  569024                       # number of overall hits
system.l2.ReadExReq_misses::cpu.data         16588799                       # number of ReadExReq misses
system.l2.ReadExReq_misses::total            16588799                       # number of ReadExReq misses
system.l2.ReadCleanReq_misses::cpu.inst          4068                       # number of ReadCleanReq misses
system.l2.ReadCleanReq_misses::total             4068                       # number of ReadCleanReq misses
system.l2.ReadSharedReq_misses::cpu.data        83177                       # number of ReadSharedReq misses
system.l2.ReadSharedReq_misses::total           83177                       # number of ReadSharedReq misses
system.l2.demand_misses::cpu.inst                4068                       # number of demand (read+write) misses
system.l2.demand_misses::cpu.data            16671976                       # number of demand (read+write) misses
system.l2.demand_misses::total               16676044                       # number of demand (read+write) misses
system.l2.overall_misses::cpu.inst               4068                       # number of overall misses
system.l2.overall_misses::cpu.data           16671976                       # number of overall misses
system.l2.overall_misses::total              16676044                       # number of overall misses
system.l2.ReadExReq_miss_latency::cpu.data 1381230982000                       # number of ReadExReq miss cycles
system.l2.ReadExReq_miss_latency::total  1381230982000                       # number of ReadExReq miss cycles
system.l2.ReadCleanReq_miss_latency::cpu.inst    591824500                       # number of ReadCleanReq miss cycles
system.l2.ReadCleanReq_miss_latency::total    591824500                       # number of ReadCleanReq miss cycles
system.l2.ReadSharedReq_miss_latency::cpu.data  25508441000                       # number of ReadSharedReq miss cycles
system.l2.ReadSharedReq_miss_latency::total  25508441000                       # number of ReadSharedReq miss cycles
system.l2.demand_miss_latency::cpu.inst     591824500                       # number of demand (read+write) miss cycles
system.l2.demand_miss_latency::cpu.data  1406739423000                       # number of demand (read+write) miss cycles
system.l2.demand_miss_latency::total     1407331247500                       # number of demand (read+write) miss cycles
system.l2.overall_miss_latency::cpu.inst    591824500                       # number of overall miss cycles
system.l2.overall_miss_latency::cpu.data 1406739423000                       # number of overall miss cycles
system.l2.overall_miss_latency::total    1407331247500                       # number of overall miss cycles
system.l2.WritebackDirty_accesses::writebacks     16676481                       # number of WritebackDirty accesses(hits+misses)
system.l2.WritebackDirty_accesses::total     16676481                       # number of WritebackDirty accesses(hits+misses)
system.l2.WritebackClean_accesses::writebacks       534824                       # number of WritebackClean accesses(hits+misses)
system.l2.WritebackClean_accesses::total       534824                       # number of WritebackClean accesses(hits+misses)
system.l2.ReadExReq_accesses::cpu.data       16602828                       # number of ReadExReq accesses(hits+misses)
system.l2.ReadExReq_accesses::total          16602828                       # number of ReadExReq accesses(hits+misses)
system.l2.ReadCleanReq_accesses::cpu.inst       536711                       # number of ReadCleanReq accesses(hits+misses)
system.l2.ReadCleanReq_accesses::total         536711                       # number of ReadCleanReq accesses(hits+misses)
system.l2.ReadSharedReq_accesses::cpu.data       105529                       # number of ReadSharedReq accesses(hits+misses)
system.l2.ReadSharedReq_accesses::total        105529                       # number of ReadSharedReq accesses(hits+misses)
system.l2.demand_accesses::cpu.inst            536711                       # number of demand (read+write) accesses
system.l2.demand_accesses::cpu.data          16708357                       # number of demand (read+write) accesses
system.l2.demand_accesses::total             17245068                       # number of demand (read+write) accesses
system.l2.overall_accesses::cpu.inst           536711                       # number of overall (read+write) accesses
system.l2.overall_accesses::cpu.data         16708357                       # number of overall (read+write) accesses
system.l2.overall_accesses::total            17245068                       # number of overall (read+write) accesses
system.l2.ReadExReq_miss_rate::cpu.data      0.999155                       # miss rate for ReadExReq accesses
system.l2.ReadExReq_miss_rate::total         0.999155                       # miss rate for ReadExReq accesses
system.l2.ReadCleanReq_miss_rate::cpu.inst     0.007579                       # miss rate for ReadCleanReq accesses
system.l2.ReadCleanReq_miss_rate::total      0.007579                       # miss rate for ReadCleanReq accesses
system.l2.ReadSharedReq_miss_rate::cpu.data     0.788191                       # miss rate for ReadSharedReq accesses
system.l2.ReadSharedReq_miss_rate::total     0.788191                       # miss rate for ReadSharedReq accesses
system.l2.demand_miss_rate::cpu.inst         0.007579                       # miss rate for demand accesses
system.l2.demand_miss_rate::cpu.data         0.997823                       # miss rate for demand accesses
system.l2.demand_miss_rate::total            0.967004                       # miss rate for demand accesses
system.l2.overall_miss_rate::cpu.inst        0.007579                       # miss rate for overall accesses
system.l2.overall_miss_rate::cpu.data        0.997823                       # miss rate for overall accesses
system.l2.overall_miss_rate::total           0.967004                       # miss rate for overall accesses
system.l2.ReadExReq_avg_miss_latency::cpu.data 83262.868035                       # average ReadExReq miss latency
system.l2.ReadExReq_avg_miss_latency::total 83262.868035                       # average ReadExReq miss latency
system.l2.ReadCleanReq_avg_miss_latency::cpu.inst 145482.915438                       # average ReadCleanReq miss latency
system.l2.ReadCleanReq_avg_miss_latency::total 145482.915438                       # average ReadCleanReq miss latency
system.l2.ReadSharedReq_avg_miss_latency::cpu.data 306676.617334                       # average ReadSharedReq miss latency
system.l2.ReadSharedReq_avg_miss_latency::total 306676.617334                       # average ReadSharedReq miss latency
system.l2.demand_avg_miss_latency::cpu.inst 145482.915438                       # average overall miss latency
system.l2.demand_avg_miss_latency::cpu.data 84377.486088                       # average overall miss latency
system.l2.demand_avg_miss_latency::total 84392.392314                       # average overall miss latency
system.l2.overall_avg_miss_latency::cpu.inst 145482.915438                       # average overall miss latency
system.l2.overall_avg_miss_latency::cpu.data 84377.486088                       # average overall miss latency
system.l2.overall_avg_miss_latency::total 84392.392314                       # average overall miss latency
system.l2.blocked_cycles::no_mshrs                  0                       # number of cycles access was blocked
system.l2.blocked_cycles::no_targets                0                       # number of cycles access was blocked
system.l2.blocked::no_mshrs                         0                       # number of cycles access was blocked
system.l2.blocked::no_targets                       0                       # number of cycles access was blocked
system.l2.avg_blocked_cycles::no_mshrs            nan                       # average number of cycles each access was blocked
system.l2.avg_blocked_cycles::no_targets          nan                       # average number of cycles each access was blocked
system.l2.writebacks::writebacks             16625350                       # number of writebacks
system.l2.writebacks::total                  16625350                       # number of writebacks
system.l2.CleanEvict_mshr_misses::writebacks         5470                       # number of CleanEvict MSHR misses
system.l2.CleanEvict_mshr_misses::total          5470                       # number of CleanEvict MSHR misses
system.l2.ReadExReq_mshr_misses::cpu.data     16588799                       # number of ReadExReq MSHR misses
system.l2.ReadExReq_mshr_misses::total       16588799                       # number of ReadExReq MSHR misses
system.l2.ReadCleanReq_mshr_misses::cpu.inst         4068                       # number of ReadCleanReq MSHR misses
system.l2.ReadCleanReq_mshr_misses::total         4068                       # number of ReadCleanReq MSHR misses
system.l2.ReadSharedReq_mshr_misses::cpu.data        83177                       # number of ReadSharedReq MSHR misses
system.l2.ReadSharedReq_mshr_misses::total        83177                       # number of ReadSharedReq MSHR misses
system.l2.demand_mshr_misses::cpu.inst           4068                       # number of demand (read+write) MSHR misses
system.l2.demand_mshr_misses::cpu.data       16671976                       # number of demand (read+write) MSHR misses
system.l2.demand_mshr_misses::total          16676044                       # number of demand (read+write) MSHR misses
system.l2.overall_mshr_misses::cpu.inst          4068                       # number of overall MSHR misses
system.l2.overall_mshr_misses::cpu.data      16671976                       # number of overall MSHR misses
system.l2.overall_mshr_misses::total         16676044                       # number of overall MSHR misses
system.l2.ReadExReq_mshr_miss_latency::cpu.data 1215342992000                       # number of ReadExReq MSHR miss cycles
system.l2.ReadExReq_mshr_miss_latency::total 1215342992000                       # number of ReadExReq MSHR miss cycles
system.l2.ReadCleanReq_mshr_miss_latency::cpu.inst    551144500                       # number of ReadCleanReq MSHR miss cycles
system.l2.ReadCleanReq_mshr_miss_latency::total    551144500                       # number of ReadCleanReq MSHR miss cycles
system.l2.ReadSharedReq_mshr_miss_latency::cpu.data  24676671000                       # number of ReadSharedReq MSHR miss cycles
system.l2.ReadSharedReq_mshr_miss_latency::total  24676671000                       # number of ReadSharedReq MSHR miss cycles
system.l2.demand_mshr_miss_latency::cpu.inst    551144500                       # number of demand (read+write) MSHR miss cycles
system.l2.demand_mshr_miss_latency::cpu.data 1240019663000                       # number of demand (read+write) MSHR miss cycles
system.l2.demand_mshr_miss_latency::total 1240570807500                       # number of demand (read+write) MSHR miss cycles
system.l2.overall_mshr_miss_latency::cpu.inst    551144500                       # number of overall MSHR miss cycles
system.l2.overall_mshr_miss_latency::cpu.data 1240019663000                       # number of overall MSHR miss cycles
system.l2.overall_mshr_miss_latency::total 1240570807500                       # number of overall MSHR miss cycles
system.l2.CleanEvict_mshr_miss_rate::writebacks          inf                       # mshr miss rate for CleanEvict accesses
system.l2.CleanEvict_mshr_miss_rate::total          inf                       # mshr miss rate for CleanEvict accesses
system.l2.ReadExReq_mshr_miss_rate::cpu.data     0.999155                       # mshr miss rate for ReadExReq accesses
system.l2.ReadExReq_mshr_miss_rate::total     0.999155                       # mshr miss rate for ReadExReq accesses
system.l2.ReadCleanReq_mshr_miss_rate::cpu.inst     0.007579                       # mshr miss rate for ReadCleanReq accesses
system.l2.ReadCleanReq_mshr_miss_rate::total     0.007579                       # mshr miss rate for ReadCleanReq accesses
system.l2.ReadSharedReq_mshr_miss_rate::cpu.data     0.788191                       # mshr miss rate for ReadSharedReq accesses
system.l2.ReadSharedReq_mshr_miss_rate::total     0.788191                       # mshr miss rate for ReadSharedReq accesses
system.l2.demand_mshr_miss_rate::cpu.inst     0.007579                       # mshr miss rate for demand accesses
system.l2.demand_mshr_miss_rate::cpu.data     0.997823                       # mshr miss rate for demand accesses
system.l2.demand_mshr_miss_rate::total       0.967004                       # mshr miss rate for demand accesses
system.l2.overall_mshr_miss_rate::cpu.inst     0.007579                       # mshr miss rate for overall accesses
system.l2.overall_mshr_miss_rate::cpu.data     0.997823                       # mshr miss rate for overall accesses
system.l2.overall_mshr_miss_rate::total      0.967004                       # mshr miss rate for overall accesses
system.l2.ReadExReq_avg_mshr_miss_latency::cpu.data 73262.868035                       # average ReadExReq mshr miss latency
system.l2.ReadExReq_avg_mshr_miss_latency::total 73262.868035                       # average ReadExReq mshr miss latency
system.l2.ReadCleanReq_avg_mshr_miss_latency::cpu.inst 135482.915438                       # average ReadCleanReq mshr miss latency
system.l2.ReadCleanReq_avg_mshr_miss_latency::total 135482.915438                       # average ReadCleanReq mshr miss latency
system.l2.ReadSharedReq_avg_mshr_miss_latency::cpu.data 296676.617334                       # average ReadSharedReq mshr miss latency
system.l2.ReadSharedReq_avg_mshr_miss_latency::total 296676.617334                       # average ReadSharedReq mshr miss latency
system.l2.demand_avg_mshr_miss_latency::cpu.inst 135482.915438                       # average overall mshr miss latency
system.l2.demand_avg_mshr_miss_latency::cpu.data 74377.486088                       # average overall mshr miss latency
system.l2.demand_avg_mshr_miss_latency::total 74392.392314                       # average overall mshr miss latency
system.l2.overall_avg_mshr_miss_latency::cpu.inst 135482.915438                       # average overall mshr miss latency
system.l2.overall_avg_mshr_miss_latency::cpu.data 74377.486088                       # average overall mshr miss latency
system.l2.overall_avg_mshr_miss_latency::total 74392.392314                       # average overall mshr miss latency
system.membus.snoop_filter.tot_requests      33317202                       # Total number of requests made to the snoop filter.
system.membus.snoop_filter.hit_single_requests     16641158                       # Number of requests hitting in the snoop filter with a single holder of the requested data.
system.membus.snoop_filter.hit_multi_requests            0                       # Number of requests hitting in the snoop filter with multiple (>1) holders of the requested data.
system.membus.snoop_filter.tot_snoops               0                       # Total number of snoops made to the snoop filter.
system.membus.snoop_filter.hit_single_snoops            0                       # Number of snoops hitting in the snoop filter with a single holder of the requested data.
system.membus.snoop_filter.hit_multi_snoops            0                       # Number of snoops hitting in the snoop filter with multiple (>1) holders of the requested data.
system.membus.pwrStateResidencyTicks::UNDEFINED 2386201387500                       # Cumulative time (in ticks) in various power states
system.membus.trans_dist::ReadResp              87245                       # Transaction distribution
system.membus.trans_dist::WritebackDirty     16625350                       # Transaction distribution
system.membus.trans_dist::CleanEvict            15808                       # Transaction distribution
system.membus.trans_dist::ReadExReq          16588799                       # Transaction distribution
system.membus.trans_dist::ReadExResp         16588799                       # Transaction distribution
system.membus.trans_dist::ReadSharedReq         87245                       # Transaction distribution
system.membus.pkt_count_system.l2.mem_side::system.mem_ctrls.port     49993246                       # Packet count per connected master and slave (bytes)
system.membus.pkt_count_system.l2.mem_side::total     49993246                       # Packet count per connected master and slave (bytes)
system.membus.pkt_count::total               49993246                       # Packet count per connected master and slave (bytes)
system.membus.pkt_size_system.l2.mem_side::system.mem_ctrls.port   1065644608                       # Cumulative packet size per connected master and slave (bytes)
system.membus.pkt_size_system.l2.mem_side::total   1065644608                       # Cumulative packet size per connected master and slave (bytes)
system.membus.pkt_size::total              1065644608                       # Cumulative packet size per connected master and slave (bytes)
system.membus.snoops                                0                       # Total snoops (count)
system.membus.snoopTraffic                          0                       # Total snoop traffic (bytes)
system.membus.snoop_fanout::samples          16676044                       # Request fanout histogram
system.membus.snoop_fanout::mean                    0                       # Request fanout histogram
system.membus.snoop_fanout::stdev                   0                       # Request fanout histogram
system.membus.snoop_fanout::underflows              0      0.00%      0.00% # Request fanout histogram
system.membus.snoop_fanout::0                16676044    100.00%    100.00% # Request fanout histogram
system.membus.snoop_fanout::1                       0      0.00%    100.00% # Request fanout histogram
system.membus.snoop_fanout::overflows               0      0.00%    100.00% # Request fanout histogram
system.membus.snoop_fanout::min_value               0                       # Request fanout histogram
system.membus.snoop_fanout::max_value               0                       # Request fanout histogram
system.membus.snoop_fanout::total            16676044                       # Request fanout histogram
system.membus.reqLayer2.occupancy         66567926000                       # Layer occupancy (ticks)
system.membus.reqLayer2.utilization               2.8                       # Layer utilization (%)
system.membus.respLayer1.occupancy        54461667500                       # Layer occupancy (ticks)
system.membus.respLayer1.utilization              2.3                       # Layer utilization (%)
system.tol2bus.snoop_filter.tot_requests     34484153                       # Total number of requests made to the snoop filter.
system.tol2bus.snoop_filter.hit_single_requests     17239085                       # Number of requests hitting in the snoop filter with a single holder of the requested data.
system.tol2bus.snoop_filter.hit_multi_requests            0                       # Number of requests hitting in the snoop filter with multiple (>1) holders of the requested data.
system.tol2bus.snoop_filter.tot_snoops          30675                       # Total number of snoops made to the snoop filter.
system.tol2bus.snoop_filter.hit_single_snoops        30675                       # Number of snoops hitting in the snoop filter with a single holder of the requested data.
system.tol2bus.snoop_filter.hit_multi_snoops            0                       # Number of snoops hitting in the snoop filter with multiple (>1) holders of the requested data.
system.tol2bus.pwrStateResidencyTicks::UNDEFINED 2386201387500                       # Cumulative time (in ticks) in various power states
system.tol2bus.trans_dist::ReadResp            642240                       # Transaction distribution
system.tol2bus.trans_dist::WritebackDirty     33301831                       # Transaction distribution
system.tol2bus.trans_dist::WritebackClean       534824                       # Transaction distribution
system.tol2bus.trans_dist::CleanEvict           68793                       # Transaction distribution
system.tol2bus.trans_dist::ReadExReq         16602828                       # Transaction distribution
system.tol2bus.trans_dist::ReadExResp        16602828                       # Transaction distribution
system.tol2bus.trans_dist::ReadCleanReq        536711                       # Transaction distribution
system.tol2bus.trans_dist::ReadSharedReq       105529                       # Transaction distribution
system.tol2bus.pkt_count_system.cpu.icache.mem_side::system.l2.cpu_side      1608246                       # Packet count per connected master and slave (bytes)
system.tol2bus.pkt_count_system.cpu.dcache.mem_side::system.l2.cpu_side     50120975                       # Packet count per connected master and slave (bytes)
system.tol2bus.pkt_count::total              51729221                       # Packet count per connected master and slave (bytes)
system.tol2bus.pkt_size_system.cpu.icache.mem_side::system.l2.cpu_side     34289120                       # Cumulative packet size per connected master and slave (bytes)
system.tol2bus.pkt_size_system.cpu.dcache.mem_side::system.l2.cpu_side   1068314816                       # Cumulative packet size per connected master and slave (bytes)
system.tol2bus.pkt_size::total             1102603936                       # Cumulative packet size per connected master and slave (bytes)
system.tol2bus.snoops                        16666363                       # Total snoops (count)
system.tol2bus.snoopTraffic                 532011200                       # Total snoop traffic (bytes)
system.tol2bus.snoop_fanout::samples         33911431                       # Request fanout histogram
system.tol2bus.snoop_fanout::mean            0.000905                       # Request fanout histogram
system.tol2bus.snoop_fanout::stdev           0.030062                       # Request fanout histogram
system.tol2bus.snoop_fanout::underflows             0      0.00%      0.00% # Request fanout histogram
system.tol2bus.snoop_fanout::0               33880756     99.91%     99.91% # Request fanout histogram
system.tol2bus.snoop_fanout::1                  30675      0.09%    100.00% # Request fanout histogram
system.tol2bus.snoop_fanout::2                      0      0.00%    100.00% # Request fanout histogram
system.tol2bus.snoop_fanout::3                      0      0.00%    100.00% # Request fanout histogram
system.tol2bus.snoop_fanout::4                      0      0.00%    100.00% # Request fanout histogram
system.tol2bus.snoop_fanout::overflows              0      0.00%    100.00% # Request fanout histogram
system.tol2bus.snoop_fanout::min_value              0                       # Request fanout histogram
system.tol2bus.snoop_fanout::max_value              1                       # Request fanout histogram
system.tol2bus.snoop_fanout::total           33911431                       # Request fanout histogram
system.tol2bus.reqLayer0.occupancy        25847729000                       # Layer occupancy (ticks)
system.tol2bus.reqLayer0.utilization              1.1                       # Layer utilization (%)
system.tol2bus.respLayer0.occupancy         536711000                       # Layer occupancy (ticks)
system.tol2bus.respLayer0.utilization             0.0                       # Layer utilization (%)
system.tol2bus.respLayer1.occupancy       16708357000                       # Layer occupancy (ticks)
system.tol2bus.respLayer1.utilization             0.7                       # Layer utilization (%)

---------- End Simulation Statistics   ----------
