
---------- Begin Simulation Statistics ----------
sim_seconds                                  2.393211                       # Number of seconds simulated
sim_ticks                                2393211443500                       # Number of ticks simulated
final_tick                               2393211443500                       # Number of ticks from beginning of simulation (restored from checkpoints and never reset)
sim_freq                                 1000000000000                       # Frequency of simulated ticks
host_inst_rate                                 310082                       # Simulator instruction rate (inst/s)
host_op_rate                                   510623                       # Simulator op (including micro ops) rate (op/s)
host_tick_rate                             1484184521                       # Simulator tick rate (ticks/s)
host_mem_usage                                 668820                       # Number of bytes of host memory used
host_seconds                                  1612.48                       # Real time elapsed on the host
sim_insts                                   500000000                       # Number of instructions simulated
sim_ops                                     823366692                       # Number of ops (including micro ops) simulated
system.voltage_domain.voltage                       1                       # Voltage in Volts
system.clk_domain.clock                          1000                       # Clock period in ticks
system.mem_ctrls.pwrStateResidencyTicks::UNDEFINED 2393211443500                       # Cumulative time (in ticks) in various power states
system.mem_ctrls.bytes_read::cpu.inst          109568                       # Number of bytes read from this memory
system.mem_ctrls.bytes_read::cpu.data       533338336                       # Number of bytes read from this memory
system.mem_ctrls.bytes_read::total          533447904                       # Number of bytes read from this memory
system.mem_ctrls.bytes_inst_read::cpu.inst       109568                       # Number of instructions bytes read from this memory
system.mem_ctrls.bytes_inst_read::total        109568                       # Number of instructions bytes read from this memory
system.mem_ctrls.bytes_written::writebacks    532019872                       # Number of bytes written to this memory
system.mem_ctrls.bytes_written::total       532019872                       # Number of bytes written to this memory
system.mem_ctrls.num_reads::cpu.inst             3424                       # Number of read requests responded to by this memory
system.mem_ctrls.num_reads::cpu.data         16666823                       # Number of read requests responded to by this memory
system.mem_ctrls.num_reads::total            16670247                       # Number of read requests responded to by this memory
system.mem_ctrls.num_writes::writebacks      16625621                       # Number of write requests responded to by this memory
system.mem_ctrls.num_writes::total           16625621                       # Number of write requests responded to by this memory
system.mem_ctrls.bw_read::cpu.inst              45783                       # Total read bandwidth from this memory (bytes/s)
system.mem_ctrls.bw_read::cpu.data          222854666                       # Total read bandwidth from this memory (bytes/s)
system.mem_ctrls.bw_read::total             222900448                       # Total read bandwidth from this memory (bytes/s)
system.mem_ctrls.bw_inst_read::cpu.inst         45783                       # Instruction read bandwidth from this memory (bytes/s)
system.mem_ctrls.bw_inst_read::total            45783                       # Instruction read bandwidth from this memory (bytes/s)
system.mem_ctrls.bw_write::writebacks       222303747                       # Write bandwidth from this memory (bytes/s)
system.mem_ctrls.bw_write::total            222303747                       # Write bandwidth from this memory (bytes/s)
system.mem_ctrls.bw_total::writebacks       222303747                       # Total bandwidth to/from this memory (bytes/s)
system.mem_ctrls.bw_total::cpu.inst             45783                       # Total bandwidth to/from this memory (bytes/s)
system.mem_ctrls.bw_total::cpu.data         222854666                       # Total bandwidth to/from this memory (bytes/s)
system.mem_ctrls.bw_total::total            445204196                       # Total bandwidth to/from this memory (bytes/s)
system.mem_ctrls.readReqs                    16670247                       # Number of read requests accepted
system.mem_ctrls.writeReqs                   16625621                       # Number of write requests accepted
system.mem_ctrls.readBursts                  16670247                       # Number of DRAM read bursts, including those serviced by the write queue
system.mem_ctrls.writeBursts                 16625621                       # Number of DRAM write bursts, including those merged in the write queue
system.mem_ctrls.bytesReadDRAM             1066894912                       # Total number of bytes read from DRAM
system.mem_ctrls.bytesReadWrQ                     896                       # Total number of bytes read from write queue
system.mem_ctrls.bytesWritten               534677376                       # Total number of bytes written to DRAM
system.mem_ctrls.bytesReadSys               533447904                       # Total read bytes from the system interface side
system.mem_ctrls.bytesWrittenSys            532019872                       # Total written bytes from the system interface side
system.mem_ctrls.servicedByWrQ                     14                       # Number of DRAM read bursts serviced by the write queue
system.mem_ctrls.mergedWrBursts               8271259                       # Number of DRAM write bursts merged with an existing one
system.mem_ctrls.neitherReadNorWriteReqs            0                       # Number of requests that are neither read nor write
system.mem_ctrls.perBankRdBursts::0           1041748                       # Per bank write bursts
system.mem_ctrls.perBankRdBursts::1           1041380                       # Per bank write bursts
system.mem_ctrls.perBankRdBursts::2           1041612                       # Per bank write bursts
system.mem_ctrls.perBankRdBursts::3           1042127                       # Per bank write bursts
system.mem_ctrls.perBankRdBursts::4           1042049                       # Per bank write bursts
system.mem_ctrls.perBankRdBursts::5           1042121                       # Per bank write bursts
system.mem_ctrls.perBankRdBursts::6           1041701                       # Per bank write bursts
system.mem_ctrls.perBankRdBursts::7           1041590                       # Per bank write bursts
system.mem_ctrls.perBankRdBursts::8           1041205                       # Per bank write bursts
system.mem_ctrls.perBankRdBursts::9           1041610                       # Per bank write bursts
system.mem_ctrls.perBankRdBursts::10          1041898                       # Per bank write bursts
system.mem_ctrls.perBankRdBursts::11          1042389                       # Per bank write bursts
system.mem_ctrls.perBankRdBursts::12          1042364                       # Per bank write bursts
system.mem_ctrls.perBankRdBursts::13          1042244                       # Per bank write bursts
system.mem_ctrls.perBankRdBursts::14          1042039                       # Per bank write bursts
system.mem_ctrls.perBankRdBursts::15          1042156                       # Per bank write bursts
system.mem_ctrls.perBankWrBursts::0            522088                       # Per bank write bursts
system.mem_ctrls.perBankWrBursts::1            521726                       # Per bank write bursts
system.mem_ctrls.perBankWrBursts::2            521956                       # Per bank write bursts
system.mem_ctrls.perBankWrBursts::3            522387                       # Per bank write bursts
system.mem_ctrls.perBankWrBursts::4            522301                       # Per bank write bursts
system.mem_ctrls.perBankWrBursts::5            522341                       # Per bank write bursts
system.mem_ctrls.perBankWrBursts::6            522055                       # Per bank write bursts
system.mem_ctrls.perBankWrBursts::7            522088                       # Per bank write bursts
system.mem_ctrls.perBankWrBursts::8            521827                       # Per bank write bursts
system.mem_ctrls.perBankWrBursts::9            522005                       # Per bank write bursts
system.mem_ctrls.perBankWrBursts::10           522280                       # Per bank write bursts
system.mem_ctrls.perBankWrBursts::11           522327                       # Per bank write bursts
system.mem_ctrls.perBankWrBursts::12           522308                       # Per bank write bursts
system.mem_ctrls.perBankWrBursts::13           522287                       # Per bank write bursts
system.mem_ctrls.perBankWrBursts::14           522155                       # Per bank write bursts
system.mem_ctrls.perBankWrBursts::15           522203                       # Per bank write bursts
system.mem_ctrls.numRdRetry                         0                       # Number of times read queue was full causing retry
system.mem_ctrls.numWrRetry                         0                       # Number of times write queue was full causing retry
system.mem_ctrls.totGap                  2393187957500                       # Total gap between requests
system.mem_ctrls.readPktSize::0                     0                       # Read request sizes (log2)
system.mem_ctrls.readPktSize::1                     0                       # Read request sizes (log2)
system.mem_ctrls.readPktSize::2                     0                       # Read request sizes (log2)
system.mem_ctrls.readPktSize::3                     0                       # Read request sizes (log2)
system.mem_ctrls.readPktSize::4                     0                       # Read request sizes (log2)
system.mem_ctrls.readPktSize::5              16670247                       # Read request sizes (log2)
system.mem_ctrls.readPktSize::6                     0                       # Read request sizes (log2)
system.mem_ctrls.writePktSize::0                    0                       # Write request sizes (log2)
system.mem_ctrls.writePktSize::1                    0                       # Write request sizes (log2)
system.mem_ctrls.writePktSize::2                    0                       # Write request sizes (log2)
system.mem_ctrls.writePktSize::3                    0                       # Write request sizes (log2)
system.mem_ctrls.writePktSize::4                    0                       # Write request sizes (log2)
system.mem_ctrls.writePktSize::5             16625621                       # Write request sizes (log2)
system.mem_ctrls.writePktSize::6                    0                       # Write request sizes (log2)
system.mem_ctrls.rdQLenPdf::0                16670232                       # What read queue length does an incoming req see
system.mem_ctrls.rdQLenPdf::1                       1                       # What read queue length does an incoming req see
system.mem_ctrls.rdQLenPdf::2                       0                       # What read queue length does an incoming req see
system.mem_ctrls.rdQLenPdf::3                       0                       # What read queue length does an incoming req see
system.mem_ctrls.rdQLenPdf::4                       0                       # What read queue length does an incoming req see
system.mem_ctrls.rdQLenPdf::5                       0                       # What read queue length does an incoming req see
system.mem_ctrls.rdQLenPdf::6                       0                       # What read queue length does an incoming req see
system.mem_ctrls.rdQLenPdf::7                       0                       # What read queue length does an incoming req see
system.mem_ctrls.rdQLenPdf::8                       0                       # What read queue length does an incoming req see
system.mem_ctrls.rdQLenPdf::9                       0                       # What read queue length does an incoming req see
system.mem_ctrls.rdQLenPdf::10                      0                       # What read queue length does an incoming req see
system.mem_ctrls.rdQLenPdf::11                      0                       # What read queue length does an incoming req see
system.mem_ctrls.rdQLenPdf::12                      0                       # What read queue length does an incoming req see
system.mem_ctrls.rdQLenPdf::13                      0                       # What read queue length does an incoming req see
system.mem_ctrls.rdQLenPdf::14                      0                       # What read queue length does an incoming req see
system.mem_ctrls.rdQLenPdf::15                      0                       # What read queue length does an incoming req see
system.mem_ctrls.rdQLenPdf::16                      0                       # What read queue length does an incoming req see
system.mem_ctrls.rdQLenPdf::17                      0                       # What read queue length does an incoming req see
system.mem_ctrls.rdQLenPdf::18                      0                       # What read queue length does an incoming req see
system.mem_ctrls.rdQLenPdf::19                      0                       # What read queue length does an incoming req see
system.mem_ctrls.rdQLenPdf::20                      0                       # What read queue length does an incoming req see
system.mem_ctrls.rdQLenPdf::21                      0                       # What read queue length does an incoming req see
system.mem_ctrls.rdQLenPdf::22                      0                       # What read queue length does an incoming req see
system.mem_ctrls.rdQLenPdf::23                      0                       # What read queue length does an incoming req see
system.mem_ctrls.rdQLenPdf::24                      0                       # What read queue length does an incoming req see
system.mem_ctrls.rdQLenPdf::25                      0                       # What read queue length does an incoming req see
system.mem_ctrls.rdQLenPdf::26                      0                       # What read queue length does an incoming req see
system.mem_ctrls.rdQLenPdf::27                      0                       # What read queue length does an incoming req see
system.mem_ctrls.rdQLenPdf::28                      0                       # What read queue length does an incoming req see
system.mem_ctrls.rdQLenPdf::29                      0                       # What read queue length does an incoming req see
system.mem_ctrls.rdQLenPdf::30                      0                       # What read queue length does an incoming req see
system.mem_ctrls.rdQLenPdf::31                      0                       # What read queue length does an incoming req see
system.mem_ctrls.wrQLenPdf::0                       1                       # What write queue length does an incoming req see
system.mem_ctrls.wrQLenPdf::1                       1                       # What write queue length does an incoming req see
system.mem_ctrls.wrQLenPdf::2                       1                       # What write queue length does an incoming req see
system.mem_ctrls.wrQLenPdf::3                       1                       # What write queue length does an incoming req see
system.mem_ctrls.wrQLenPdf::4                       1                       # What write queue length does an incoming req see
system.mem_ctrls.wrQLenPdf::5                       1                       # What write queue length does an incoming req see
system.mem_ctrls.wrQLenPdf::6                       1                       # What write queue length does an incoming req see
system.mem_ctrls.wrQLenPdf::7                       1                       # What write queue length does an incoming req see
system.mem_ctrls.wrQLenPdf::8                       1                       # What write queue length does an incoming req see
system.mem_ctrls.wrQLenPdf::9                       1                       # What write queue length does an incoming req see
system.mem_ctrls.wrQLenPdf::10                      1                       # What write queue length does an incoming req see
system.mem_ctrls.wrQLenPdf::11                      1                       # What write queue length does an incoming req see
system.mem_ctrls.wrQLenPdf::12                      1                       # What write queue length does an incoming req see
system.mem_ctrls.wrQLenPdf::13                      1                       # What write queue length does an incoming req see
system.mem_ctrls.wrQLenPdf::14                      1                       # What write queue length does an incoming req see
system.mem_ctrls.wrQLenPdf::15                   3862                       # What write queue length does an incoming req see
system.mem_ctrls.wrQLenPdf::16                   4639                       # What write queue length does an incoming req see
system.mem_ctrls.wrQLenPdf::17                 521572                       # What write queue length does an incoming req see
system.mem_ctrls.wrQLenPdf::18                 521615                       # What write queue length does an incoming req see
system.mem_ctrls.wrQLenPdf::19                 521615                       # What write queue length does an incoming req see
system.mem_ctrls.wrQLenPdf::20                 521616                       # What write queue length does an incoming req see
system.mem_ctrls.wrQLenPdf::21                 521616                       # What write queue length does an incoming req see
system.mem_ctrls.wrQLenPdf::22                 521615                       # What write queue length does an incoming req see
system.mem_ctrls.wrQLenPdf::23                 521616                       # What write queue length does an incoming req see
system.mem_ctrls.wrQLenPdf::24                 521617                       # What write queue length does an incoming req see
system.mem_ctrls.wrQLenPdf::25                 521617                       # What write queue length does an incoming req see
system.mem_ctrls.wrQLenPdf::26                 521623                       # What write queue length does an incoming req see
system.mem_ctrls.wrQLenPdf::27                 521617                       # What write queue length does an incoming req see
system.mem_ctrls.wrQLenPdf::28                 521619                       # What write queue length does an incoming req see
system.mem_ctrls.wrQLenPdf::29                 521636                       # What write queue length does an incoming req see
system.mem_ctrls.wrQLenPdf::30                 521622                       # What write queue length does an incoming req see
system.mem_ctrls.wrQLenPdf::31                 521616                       # What write queue length does an incoming req see
system.mem_ctrls.wrQLenPdf::32                 521614                       # What write queue length does an incoming req see
system.mem_ctrls.wrQLenPdf::33                      0                       # What write queue length does an incoming req see
system.mem_ctrls.wrQLenPdf::34                      0                       # What write queue length does an incoming req see
system.mem_ctrls.wrQLenPdf::35                      0                       # What write queue length does an incoming req see
system.mem_ctrls.wrQLenPdf::36                      0                       # What write queue length does an incoming req see
system.mem_ctrls.wrQLenPdf::37                      0                       # What write queue length does an incoming req see
system.mem_ctrls.wrQLenPdf::38                      0                       # What write queue length does an incoming req see
system.mem_ctrls.wrQLenPdf::39                      0                       # What write queue length does an incoming req see
system.mem_ctrls.wrQLenPdf::40                      0                       # What write queue length does an incoming req see
system.mem_ctrls.wrQLenPdf::41                      0                       # What write queue length does an incoming req see
system.mem_ctrls.wrQLenPdf::42                      0                       # What write queue length does an incoming req see
system.mem_ctrls.wrQLenPdf::43                      0                       # What write queue length does an incoming req see
system.mem_ctrls.wrQLenPdf::44                      0                       # What write queue length does an incoming req see
system.mem_ctrls.wrQLenPdf::45                      0                       # What write queue length does an incoming req see
system.mem_ctrls.wrQLenPdf::46                      0                       # What write queue length does an incoming req see
system.mem_ctrls.wrQLenPdf::47                      0                       # What write queue length does an incoming req see
system.mem_ctrls.wrQLenPdf::48                      0                       # What write queue length does an incoming req see
system.mem_ctrls.wrQLenPdf::49                      0                       # What write queue length does an incoming req see
system.mem_ctrls.wrQLenPdf::50                      0                       # What write queue length does an incoming req see
system.mem_ctrls.wrQLenPdf::51                      0                       # What write queue length does an incoming req see
system.mem_ctrls.wrQLenPdf::52                      0                       # What write queue length does an incoming req see
system.mem_ctrls.wrQLenPdf::53                      0                       # What write queue length does an incoming req see
system.mem_ctrls.wrQLenPdf::54                      0                       # What write queue length does an incoming req see
system.mem_ctrls.wrQLenPdf::55                      0                       # What write queue length does an incoming req see
system.mem_ctrls.wrQLenPdf::56                      0                       # What write queue length does an incoming req see
system.mem_ctrls.wrQLenPdf::57                      0                       # What write queue length does an incoming req see
system.mem_ctrls.wrQLenPdf::58                      0                       # What write queue length does an incoming req see
system.mem_ctrls.wrQLenPdf::59                      0                       # What write queue length does an incoming req see
system.mem_ctrls.wrQLenPdf::60                      0                       # What write queue length does an incoming req see
system.mem_ctrls.wrQLenPdf::61                      0                       # What write queue length does an incoming req see
system.mem_ctrls.wrQLenPdf::62                      0                       # What write queue length does an incoming req see
system.mem_ctrls.wrQLenPdf::63                      0                       # What write queue length does an incoming req see
system.mem_ctrls.bytesPerActivate::samples      2018530                       # Bytes accessed per row activation
system.mem_ctrls.bytesPerActivate::mean    793.434969                       # Bytes accessed per row activation
system.mem_ctrls.bytesPerActivate::gmean   620.172293                       # Bytes accessed per row activation
system.mem_ctrls.bytesPerActivate::stdev   352.710790                       # Bytes accessed per row activation
system.mem_ctrls.bytesPerActivate::0-127       206641     10.24%     10.24% # Bytes accessed per row activation
system.mem_ctrls.bytesPerActivate::128-255        86004      4.26%     14.50% # Bytes accessed per row activation
system.mem_ctrls.bytesPerActivate::256-383        79725      3.95%     18.45% # Bytes accessed per row activation
system.mem_ctrls.bytesPerActivate::384-511        80111      3.97%     22.42% # Bytes accessed per row activation
system.mem_ctrls.bytesPerActivate::512-639        85337      4.23%     26.64% # Bytes accessed per row activation
system.mem_ctrls.bytesPerActivate::640-767        57256      2.84%     29.48% # Bytes accessed per row activation
system.mem_ctrls.bytesPerActivate::768-895        82927      4.11%     33.59% # Bytes accessed per row activation
system.mem_ctrls.bytesPerActivate::896-1023        73469      3.64%     37.23% # Bytes accessed per row activation
system.mem_ctrls.bytesPerActivate::1024-1151      1267060     62.77%    100.00% # Bytes accessed per row activation
system.mem_ctrls.bytesPerActivate::total      2018530                       # Bytes accessed per row activation
system.mem_ctrls.rdPerTurnAround::samples       521614                       # Reads before turning the bus around for writes
system.mem_ctrls.rdPerTurnAround::mean      31.958924                       # Reads before turning the bus around for writes
system.mem_ctrls.rdPerTurnAround::gmean     31.868711                       # Reads before turning the bus around for writes
system.mem_ctrls.rdPerTurnAround::stdev     33.021668                       # Reads before turning the bus around for writes
system.mem_ctrls.rdPerTurnAround::0-1023       521609    100.00%    100.00% # Reads before turning the bus around for writes
system.mem_ctrls.rdPerTurnAround::1024-2047            3      0.00%    100.00% # Reads before turning the bus around for writes
system.mem_ctrls.rdPerTurnAround::2048-3071            1      0.00%    100.00% # Reads before turning the bus around for writes
system.mem_ctrls.rdPerTurnAround::23552-24575            1      0.00%    100.00% # Reads before turning the bus around for writes
system.mem_ctrls.rdPerTurnAround::total        521614                       # Reads before turning the bus around for writes
system.mem_ctrls.wrPerTurnAround::samples       521614                       # Writes before turning the bus around for reads
system.mem_ctrls.wrPerTurnAround::mean      16.016315                       # Writes before turning the bus around for reads
system.mem_ctrls.wrPerTurnAround::gmean     16.015420                       # Writes before turning the bus around for reads
system.mem_ctrls.wrPerTurnAround::stdev      0.175922                       # Writes before turning the bus around for reads
system.mem_ctrls.wrPerTurnAround::16           516977     99.11%     99.11% # Writes before turning the bus around for reads
system.mem_ctrls.wrPerTurnAround::17              776      0.15%     99.26% # Writes before turning the bus around for reads
system.mem_ctrls.wrPerTurnAround::18             3850      0.74%    100.00% # Writes before turning the bus around for reads
system.mem_ctrls.wrPerTurnAround::19               10      0.00%    100.00% # Writes before turning the bus around for reads
system.mem_ctrls.wrPerTurnAround::20                1      0.00%    100.00% # Writes before turning the bus around for reads
system.mem_ctrls.wrPerTurnAround::total        521614                       # Writes before turning the bus around for reads
system.mem_ctrls.totQLat                 247110744250                       # Total ticks spent queuing
system.mem_ctrls.totMemAccLat            559677613000                       # Total ticks spent from burst creation until serviced by the DRAM
system.mem_ctrls.totBusLat                83351165000                       # Total ticks spent in databus transfers
system.mem_ctrls.avgQLat                     14823.47                       # Average queueing delay per DRAM burst
system.mem_ctrls.avgBusLat                    5000.00                       # Average bus latency per DRAM burst
system.mem_ctrls.avgMemAccLat                33573.47                       # Average memory access latency per DRAM burst
system.mem_ctrls.avgRdBW                       445.80                       # Average DRAM read bandwidth in MiByte/s
system.mem_ctrls.avgWrBW                       223.41                       # Average achieved write bandwidth in MiByte/s
system.mem_ctrls.avgRdBWSys                    222.90                       # Average system read bandwidth in MiByte/s
system.mem_ctrls.avgWrBWSys                    222.30                       # Average system write bandwidth in MiByte/s
system.mem_ctrls.peakBW                      12800.00                       # Theoretical peak bandwidth in MiByte/s
system.mem_ctrls.busUtil                         5.23                       # Data bus utilization in percentage
system.mem_ctrls.busUtilRead                     3.48                       # Data bus utilization in percentage for reads
system.mem_ctrls.busUtilWrite                    1.75                       # Data bus utilization in percentage for writes
system.mem_ctrls.avgRdQLen                       1.00                       # Average read queue length when enqueuing
system.mem_ctrls.avgWrQLen                      25.32                       # Average write queue length when enqueuing
system.mem_ctrls.readRowHits                 15303268                       # Number of row buffer hits during reads
system.mem_ctrls.writeRowHits                 7702769                       # Number of row buffer hits during writes
system.mem_ctrls.readRowHitRate                 91.80                       # Row buffer hit rate for reads
system.mem_ctrls.writeRowHitRate                92.20                       # Row buffer hit rate for writes
system.mem_ctrls.avgGap                      71876.42                       # Average gap between requests
system.mem_ctrls.pageHitRate                    91.93                       # Row buffer hit rate, read and write combined
system.mem_ctrls_0.actEnergy               7211057280                       # Energy for activate commands per rank (pJ)
system.mem_ctrls_0.preEnergy               3832767840                       # Energy for precharge commands per rank (pJ)
system.mem_ctrls_0.readEnergy             59507101920                       # Energy for read commands per rank (pJ)
system.mem_ctrls_0.writeEnergy            21803637240                       # Energy for write commands per rank (pJ)
system.mem_ctrls_0.refreshEnergy         113114043120.000031                       # Energy for refresh commands per rank (pJ)
system.mem_ctrls_0.actBackEnergy         147445195740                       # Energy for active background per rank (pJ)
system.mem_ctrls_0.preBackEnergy           8753488800                       # Energy for precharge background per rank (pJ)
system.mem_ctrls_0.actPowerDownEnergy    295584371610                       # Energy for active power-down per rank (pJ)
system.mem_ctrls_0.prePowerDownEnergy     93989146560                       # Energy for precharge power-down per rank (pJ)
system.mem_ctrls_0.selfRefreshEnergy     291752158335                       # Energy for self refresh per rank (pJ)
system.mem_ctrls_0.totalEnergy           1043018755395                       # Total energy per rank (pJ)
system.mem_ctrls_0.averagePower            435.823903                       # Core power per rank (mW)
system.mem_ctrls_0.totalIdleTime         2047002311500                       # Total Idle time Per DRAM Rank
system.mem_ctrls_0.memoryStateTime::IDLE   9747783500                       # Time in different power states
system.mem_ctrls_0.memoryStateTime::REF   48023018000                       # Time in different power states
system.mem_ctrls_0.memoryStateTime::SREF 1154039912250                       # Time in different power states
system.mem_ctrls_0.memoryStateTime::PRE_PDN 244760075000                       # Time in different power states
system.mem_ctrls_0.memoryStateTime::ACT  288422902750                       # Time in different power states
system.mem_ctrls_0.memoryStateTime::ACT_PDN 648217752000                       # Time in different power states
system.mem_ctrls_1.actEnergy               7201246920                       # Energy for activate commands per rank (pJ)
system.mem_ctrls_1.preEnergy               3827553510                       # Energy for precharge commands per rank (pJ)
system.mem_ctrls_1.readEnergy             59518361700                       # Energy for read commands per rank (pJ)
system.mem_ctrls_1.writeEnergy            21805986240                       # Energy for write commands per rank (pJ)
system.mem_ctrls_1.refreshEnergy         112657365600.000031                       # Energy for refresh commands per rank (pJ)
system.mem_ctrls_1.actBackEnergy         147418299720                       # Energy for active background per rank (pJ)
system.mem_ctrls_1.preBackEnergy           8723809440                       # Energy for precharge background per rank (pJ)
system.mem_ctrls_1.actPowerDownEnergy    294625755870                       # Energy for active power-down per rank (pJ)
system.mem_ctrls_1.prePowerDownEnergy     93159795360                       # Energy for precharge power-down per rank (pJ)
system.mem_ctrls_1.selfRefreshEnergy     292702298955                       # Energy for self refresh per rank (pJ)
system.mem_ctrls_1.totalEnergy           1041668572695                       # Total energy per rank (pJ)
system.mem_ctrls_1.averagePower            435.259729                       # Core power per rank (mW)
system.mem_ctrls_1.totalIdleTime         2047082756750                       # Total Idle time Per DRAM Rank
system.mem_ctrls_1.memoryStateTime::IDLE   9685477750                       # Time in different power states
system.mem_ctrls_1.memoryStateTime::REF   47828464000                       # Time in different power states
system.mem_ctrls_1.memoryStateTime::SREF 1158433048000                       # Time in different power states
system.mem_ctrls_1.memoryStateTime::PRE_PDN 242600335750                       # Time in different power states
system.mem_ctrls_1.memoryStateTime::ACT  288547953000                       # Time in different power states
system.mem_ctrls_1.memoryStateTime::ACT_PDN 646116165000                       # Time in different power states
system.pwrStateResidencyTicks::UNDEFINED 2393211443500                       # Cumulative time (in ticks) in various power states
system.cpu_voltage_domain.voltage                   1                       # Voltage in Volts
system.cpu_clk_domain.clock                       500                       # Clock period in ticks
system.cpu.dtb.walker.pwrStateResidencyTicks::UNDEFINED 2393211443500                       # Cumulative time (in ticks) in various power states
system.cpu.apic_clk_domain.clock                 8000                       # Clock period in ticks
system.cpu.interrupts.pwrStateResidencyTicks::UNDEFINED 2393211443500                       # Cumulative time (in ticks) in various power states
system.cpu.itb.walker.pwrStateResidencyTicks::UNDEFINED 2393211443500                       # Cumulative time (in ticks) in various power states
system.cpu.workload.num_syscalls                  196                       # Number of system calls
system.cpu.pwrStateResidencyTicks::ON    2393211443500                       # Cumulative time (in ticks) in various power states
system.cpu.numCycles                       4786422887                       # number of cpu cycles simulated
system.cpu.numWorkItemsStarted                      0                       # number of work items this cpu started
system.cpu.numWorkItemsCompleted                    0                       # number of work items this cpu completed
system.cpu.committedInsts                   500000000                       # Number of instructions committed
system.cpu.committedOps                     823366692                       # Number of ops (including micro ops) committed
system.cpu.num_int_alu_accesses             821415783                       # Number of integer alu accesses
system.cpu.num_fp_alu_accesses               66619246                       # Number of float alu accesses
system.cpu.num_func_calls                     5652773                       # number of times a function call or return occured
system.cpu.num_conditional_control_insts     57208853                       # number of instructions that are conditional controls
system.cpu.num_int_insts                    821415783                       # number of integer instructions
system.cpu.num_fp_insts                      66619246                       # number of float instructions
system.cpu.num_int_register_reads          1637209917                       # number of times the integer registers were read
system.cpu.num_int_register_writes          639871082                       # number of times the integer registers were written
system.cpu.num_fp_register_reads             66766836                       # number of times the floating registers were read
system.cpu.num_fp_register_writes              208042                       # number of times the floating registers were written
system.cpu.num_cc_register_reads            319714243                       # number of times the CC registers were read
system.cpu.num_cc_register_writes           287984022                       # number of times the CC registers were written
system.cpu.num_mem_refs                     271673939                       # number of memory refs
system.cpu.num_load_insts                   157213791                       # Number of load instructions
system.cpu.num_store_insts                  114460148                       # Number of store instructions
system.cpu.num_idle_cycles                          0                       # Number of idle cycles
system.cpu.num_busy_cycles                 4786422887                       # Number of busy cycles
system.cpu.not_idle_fraction                        1                       # Percentage of non-idle cycles
system.cpu.idle_fraction                            0                       # Percentage of idle cycles
system.cpu.Branches                          69678400                       # Number of branches fetched
system.cpu.op_class::No_OpClass                202234      0.02%      0.02% # Class of executed instruction
system.cpu.op_class::IntAlu                 550028817     66.80%     66.83% # Class of executed instruction
system.cpu.op_class::IntMult                   125092      0.02%     66.84% # Class of executed instruction
system.cpu.op_class::IntDiv                   1153479      0.14%     66.98% # Class of executed instruction
system.cpu.op_class::FloatAdd                  183131      0.02%     67.00% # Class of executed instruction
system.cpu.op_class::FloatCmp                       0      0.00%     67.00% # Class of executed instruction
system.cpu.op_class::FloatCvt                       0      0.00%     67.00% # Class of executed instruction
system.cpu.op_class::FloatMult                      0      0.00%     67.00% # Class of executed instruction
system.cpu.op_class::FloatDiv                       0      0.00%     67.00% # Class of executed instruction
system.cpu.op_class::FloatSqrt                      0      0.00%     67.00% # Class of executed instruction
system.cpu.op_class::SimdAdd                        0      0.00%     67.00% # Class of executed instruction
system.cpu.op_class::SimdAddAcc                     0      0.00%     67.00% # Class of executed instruction
system.cpu.op_class::SimdAlu                        0      0.00%     67.00% # Class of executed instruction
system.cpu.op_class::SimdCmp                        0      0.00%     67.00% # Class of executed instruction
system.cpu.op_class::SimdCvt                        0      0.00%     67.00% # Class of executed instruction
system.cpu.op_class::SimdMisc                       0      0.00%     67.00% # Class of executed instruction
system.cpu.op_class::SimdMult                       0      0.00%     67.00% # Class of executed instruction
system.cpu.op_class::SimdMultAcc                    0      0.00%     67.00% # Class of executed instruction
system.cpu.op_class::SimdShift                      0      0.00%     67.00% # Class of executed instruction
system.cpu.op_class::SimdShiftAcc                   0      0.00%     67.00% # Class of executed instruction
system.cpu.op_class::SimdSqrt                       0      0.00%     67.00% # Class of executed instruction
system.cpu.op_class::SimdFloatAdd                   0      0.00%     67.00% # Class of executed instruction
system.cpu.op_class::SimdFloatAlu                   0      0.00%     67.00% # Class of executed instruction
system.cpu.op_class::SimdFloatCmp                   0      0.00%     67.00% # Class of executed instruction
system.cpu.op_class::SimdFloatCvt                   0      0.00%     67.00% # Class of executed instruction
system.cpu.op_class::SimdFloatDiv                   0      0.00%     67.00% # Class of executed instruction
system.cpu.op_class::SimdFloatMisc                  0      0.00%     67.00% # Class of executed instruction
system.cpu.op_class::SimdFloatMult                  0      0.00%     67.00% # Class of executed instruction
system.cpu.op_class::SimdFloatMultAcc               0      0.00%     67.00% # Class of executed instruction
system.cpu.op_class::SimdFloatSqrt                  0      0.00%     67.00% # Class of executed instruction
system.cpu.op_class::MemRead                157213791     19.09%     86.10% # Class of executed instruction
system.cpu.op_class::MemWrite               114460148     13.90%    100.00% # Class of executed instruction
system.cpu.op_class::IprAccess                      0      0.00%    100.00% # Class of executed instruction
system.cpu.op_class::InstPrefetch                   0      0.00%    100.00% # Class of executed instruction
system.cpu.op_class::total                  823366692                       # Class of executed instruction
system.cpu.dcache.tags.pwrStateResidencyTicks::UNDEFINED 2393211443500                       # Cumulative time (in ticks) in various power states
system.cpu.dcache.tags.replacements          16796278                       # number of replacements
system.cpu.dcache.tags.tagsinuse          2047.584192                       # Cycle average of tags in use
system.cpu.dcache.tags.total_refs           254876230                       # Total number of references to valid blocks.
system.cpu.dcache.tags.sampled_refs          16798326                       # Sample count of references to valid blocks.
system.cpu.dcache.tags.avg_refs             15.172716                       # Average number of references to valid blocks.
system.cpu.dcache.tags.warmup_cycle        4335657500                       # Cycle when the warmup percentage was hit.
system.cpu.dcache.tags.occ_blocks::cpu.data  2047.584192                       # Average occupied blocks per requestor
system.cpu.dcache.tags.occ_percent::cpu.data     0.999797                       # Average percentage of cache occupancy
system.cpu.dcache.tags.occ_percent::total     0.999797                       # Average percentage of cache occupancy
system.cpu.dcache.tags.occ_task_id_blocks::1024         2048                       # Occupied blocks per task id
system.cpu.dcache.tags.age_task_id_blocks_1024::0            2                       # Occupied blocks per task id
system.cpu.dcache.tags.age_task_id_blocks_1024::1           45                       # Occupied blocks per task id
system.cpu.dcache.tags.age_task_id_blocks_1024::2          174                       # Occupied blocks per task id
system.cpu.dcache.tags.age_task_id_blocks_1024::3          859                       # Occupied blocks per task id
system.cpu.dcache.tags.age_task_id_blocks_1024::4          968                       # Occupied blocks per task id
system.cpu.dcache.tags.occ_task_id_percent::1024            1                       # Percentage of cache occupancy per task id
system.cpu.dcache.tags.tag_accesses        1103496550                       # Number of tag accesses
system.cpu.dcache.tags.data_accesses       1103496550                       # Number of data accesses
system.cpu.dcache.pwrStateResidencyTicks::UNDEFINED 2393211443500                       # Cumulative time (in ticks) in various power states
system.cpu.dcache.ReadReq_hits::cpu.data    157080233                       # number of ReadReq hits
system.cpu.dcache.ReadReq_hits::total       157080233                       # number of ReadReq hits
system.cpu.dcache.WriteReq_hits::cpu.data     97795997                       # number of WriteReq hits
system.cpu.dcache.WriteReq_hits::total       97795997                       # number of WriteReq hits
system.cpu.dcache.demand_hits::cpu.data     254876230                       # number of demand (read+write) hits
system.cpu.dcache.demand_hits::total        254876230                       # number of demand (read+write) hits
system.cpu.dcache.overall_hits::cpu.data    254876230                       # number of overall hits
system.cpu.dcache.overall_hits::total       254876230                       # number of overall hits
system.cpu.dcache.ReadReq_misses::cpu.data       134162                       # number of ReadReq misses
system.cpu.dcache.ReadReq_misses::total        134162                       # number of ReadReq misses
system.cpu.dcache.WriteReq_misses::cpu.data     16664164                       # number of WriteReq misses
system.cpu.dcache.WriteReq_misses::total     16664164                       # number of WriteReq misses
system.cpu.dcache.demand_misses::cpu.data     16798326                       # number of demand (read+write) misses
system.cpu.dcache.demand_misses::total       16798326                       # number of demand (read+write) misses
system.cpu.dcache.overall_misses::cpu.data     16798326                       # number of overall misses
system.cpu.dcache.overall_misses::total      16798326                       # number of overall misses
system.cpu.dcache.ReadReq_miss_latency::cpu.data  25698244000                       # number of ReadReq miss cycles
system.cpu.dcache.ReadReq_miss_latency::total  25698244000                       # number of ReadReq miss cycles
system.cpu.dcache.WriteReq_miss_latency::cpu.data 1423259123000                       # number of WriteReq miss cycles
system.cpu.dcache.WriteReq_miss_latency::total 1423259123000                       # number of WriteReq miss cycles
system.cpu.dcache.demand_miss_latency::cpu.data 1448957367000                       # number of demand (read+write) miss cycles
system.cpu.dcache.demand_miss_latency::total 1448957367000                       # number of demand (read+write) miss cycles
system.cpu.dcache.overall_miss_latency::cpu.data 1448957367000                       # number of overall miss cycles
system.cpu.dcache.overall_miss_latency::total 1448957367000                       # number of overall miss cycles
system.cpu.dcache.ReadReq_accesses::cpu.data    157214395                       # number of ReadReq accesses(hits+misses)
system.cpu.dcache.ReadReq_accesses::total    157214395                       # number of ReadReq accesses(hits+misses)
system.cpu.dcache.WriteReq_accesses::cpu.data    114460161                       # number of WriteReq accesses(hits+misses)
system.cpu.dcache.WriteReq_accesses::total    114460161                       # number of WriteReq accesses(hits+misses)
system.cpu.dcache.demand_accesses::cpu.data    271674556                       # number of demand (read+write) accesses
system.cpu.dcache.demand_accesses::total    271674556                       # number of demand (read+write) accesses
system.cpu.dcache.overall_accesses::cpu.data    271674556                       # number of overall (read+write) accesses
system.cpu.dcache.overall_accesses::total    271674556                       # number of overall (read+write) accesses
system.cpu.dcache.ReadReq_miss_rate::cpu.data     0.000853                       # miss rate for ReadReq accesses
system.cpu.dcache.ReadReq_miss_rate::total     0.000853                       # miss rate for ReadReq accesses
system.cpu.dcache.WriteReq_miss_rate::cpu.data     0.145589                       # miss rate for WriteReq accesses
system.cpu.dcache.WriteReq_miss_rate::total     0.145589                       # miss rate for WriteReq accesses
system.cpu.dcache.demand_miss_rate::cpu.data     0.061833                       # miss rate for demand accesses
system.cpu.dcache.demand_miss_rate::total     0.061833                       # miss rate for demand accesses
system.cpu.dcache.overall_miss_rate::cpu.data     0.061833                       # miss rate for overall accesses
system.cpu.dcache.overall_miss_rate::total     0.061833                       # miss rate for overall accesses
system.cpu.dcache.ReadReq_avg_miss_latency::cpu.data 191546.369315                       # average ReadReq miss latency
system.cpu.dcache.ReadReq_avg_miss_latency::total 191546.369315                       # average ReadReq miss latency
system.cpu.dcache.WriteReq_avg_miss_latency::cpu.data 85408.372301                       # average WriteReq miss latency
system.cpu.dcache.WriteReq_avg_miss_latency::total 85408.372301                       # average WriteReq miss latency
system.cpu.dcache.demand_avg_miss_latency::cpu.data 86256.057121                       # average overall miss latency
system.cpu.dcache.demand_avg_miss_latency::total 86256.057121                       # average overall miss latency
system.cpu.dcache.overall_avg_miss_latency::cpu.data 86256.057121                       # average overall miss latency
system.cpu.dcache.overall_avg_miss_latency::total 86256.057121                       # average overall miss latency
system.cpu.dcache.blocked_cycles::no_mshrs            0                       # number of cycles access was blocked
system.cpu.dcache.blocked_cycles::no_targets            0                       # number of cycles access was blocked
system.cpu.dcache.blocked::no_mshrs                 0                       # number of cycles access was blocked
system.cpu.dcache.blocked::no_targets               0                       # number of cycles access was blocked
system.cpu.dcache.avg_blocked_cycles::no_mshrs          nan                       # average number of cycles each access was blocked
system.cpu.dcache.avg_blocked_cycles::no_targets          nan                       # average number of cycles each access was blocked
system.cpu.dcache.writebacks::writebacks     16754987                       # number of writebacks
system.cpu.dcache.writebacks::total          16754987                       # number of writebacks
system.cpu.dcache.ReadReq_mshr_misses::cpu.data       134162                       # number of ReadReq MSHR misses
system.cpu.dcache.ReadReq_mshr_misses::total       134162                       # number of ReadReq MSHR misses
system.cpu.dcache.WriteReq_mshr_misses::cpu.data     16664164                       # number of WriteReq MSHR misses
system.cpu.dcache.WriteReq_mshr_misses::total     16664164                       # number of WriteReq MSHR misses
system.cpu.dcache.demand_mshr_misses::cpu.data     16798326                       # number of demand (read+write) MSHR misses
system.cpu.dcache.demand_mshr_misses::total     16798326                       # number of demand (read+write) MSHR misses
system.cpu.dcache.overall_mshr_misses::cpu.data     16798326                       # number of overall MSHR misses
system.cpu.dcache.overall_mshr_misses::total     16798326                       # number of overall MSHR misses
system.cpu.dcache.ReadReq_mshr_miss_latency::cpu.data  25564082000                       # number of ReadReq MSHR miss cycles
system.cpu.dcache.ReadReq_mshr_miss_latency::total  25564082000                       # number of ReadReq MSHR miss cycles
system.cpu.dcache.WriteReq_mshr_miss_latency::cpu.data 1406594959000                       # number of WriteReq MSHR miss cycles
system.cpu.dcache.WriteReq_mshr_miss_latency::total 1406594959000                       # number of WriteReq MSHR miss cycles
system.cpu.dcache.demand_mshr_miss_latency::cpu.data 1432159041000                       # number of demand (read+write) MSHR miss cycles
system.cpu.dcache.demand_mshr_miss_latency::total 1432159041000                       # number of demand (read+write) MSHR miss cycles
system.cpu.dcache.overall_mshr_miss_latency::cpu.data 1432159041000                       # number of overall MSHR miss cycles
system.cpu.dcache.overall_mshr_miss_latency::total 1432159041000                       # number of overall MSHR miss cycles
system.cpu.dcache.ReadReq_mshr_miss_rate::cpu.data     0.000853                       # mshr miss rate for ReadReq accesses
system.cpu.dcache.ReadReq_mshr_miss_rate::total     0.000853                       # mshr miss rate for ReadReq accesses
system.cpu.dcache.WriteReq_mshr_miss_rate::cpu.data     0.145589                       # mshr miss rate for WriteReq accesses
system.cpu.dcache.WriteReq_mshr_miss_rate::total     0.145589                       # mshr miss rate for WriteReq accesses
system.cpu.dcache.demand_mshr_miss_rate::cpu.data     0.061833                       # mshr miss rate for demand accesses
system.cpu.dcache.demand_mshr_miss_rate::total     0.061833                       # mshr miss rate for demand accesses
system.cpu.dcache.overall_mshr_miss_rate::cpu.data     0.061833                       # mshr miss rate for overall accesses
system.cpu.dcache.overall_mshr_miss_rate::total     0.061833                       # mshr miss rate for overall accesses
system.cpu.dcache.ReadReq_avg_mshr_miss_latency::cpu.data 190546.369315                       # average ReadReq mshr miss latency
system.cpu.dcache.ReadReq_avg_mshr_miss_latency::total 190546.369315                       # average ReadReq mshr miss latency
system.cpu.dcache.WriteReq_avg_mshr_miss_latency::cpu.data 84408.372301                       # average WriteReq mshr miss latency
system.cpu.dcache.WriteReq_avg_mshr_miss_latency::total 84408.372301                       # average WriteReq mshr miss latency
system.cpu.dcache.demand_avg_mshr_miss_latency::cpu.data 85256.057121                       # average overall mshr miss latency
system.cpu.dcache.demand_avg_mshr_miss_latency::total 85256.057121                       # average overall mshr miss latency
system.cpu.dcache.overall_avg_mshr_miss_latency::cpu.data 85256.057121                       # average overall mshr miss latency
system.cpu.dcache.overall_avg_mshr_miss_latency::total 85256.057121                       # average overall mshr miss latency
system.cpu.dtb_walker_cache.tags.pwrStateResidencyTicks::UNDEFINED 2393211443500                       # Cumulative time (in ticks) in various power states
system.cpu.dtb_walker_cache.tags.replacements            0                       # number of replacements
system.cpu.dtb_walker_cache.tags.tagsinuse            0                       # Cycle average of tags in use
system.cpu.dtb_walker_cache.tags.total_refs            0                       # Total number of references to valid blocks.
system.cpu.dtb_walker_cache.tags.sampled_refs            0                       # Sample count of references to valid blocks.
system.cpu.dtb_walker_cache.tags.avg_refs          nan                       # Average number of references to valid blocks.
system.cpu.dtb_walker_cache.tags.warmup_cycle            0                       # Cycle when the warmup percentage was hit.
system.cpu.dtb_walker_cache.tags.tag_accesses            0                       # Number of tag accesses
system.cpu.dtb_walker_cache.tags.data_accesses            0                       # Number of data accesses
system.cpu.dtb_walker_cache.pwrStateResidencyTicks::UNDEFINED 2393211443500                       # Cumulative time (in ticks) in various power states
system.cpu.dtb_walker_cache.blocked_cycles::no_mshrs            0                       # number of cycles access was blocked
system.cpu.dtb_walker_cache.blocked_cycles::no_targets            0                       # number of cycles access was blocked
system.cpu.dtb_walker_cache.blocked::no_mshrs            0                       # number of cycles access was blocked
system.cpu.dtb_walker_cache.blocked::no_targets            0                       # number of cycles access was blocked
system.cpu.dtb_walker_cache.avg_blocked_cycles::no_mshrs          nan                       # average number of cycles each access was blocked
system.cpu.dtb_walker_cache.avg_blocked_cycles::no_targets          nan                       # average number of cycles each access was blocked
system.cpu.icache.tags.pwrStateResidencyTicks::UNDEFINED 2393211443500                       # Cumulative time (in ticks) in various power states
system.cpu.icache.tags.replacements           1139538                       # number of replacements
system.cpu.icache.tags.tagsinuse           871.065243                       # Cycle average of tags in use
system.cpu.icache.tags.total_refs           674213095                       # Total number of references to valid blocks.
system.cpu.icache.tags.sampled_refs           1140562                       # Sample count of references to valid blocks.
system.cpu.icache.tags.avg_refs            591.123582                       # Average number of references to valid blocks.
system.cpu.icache.tags.warmup_cycle      1565358756500                       # Cycle when the warmup percentage was hit.
system.cpu.icache.tags.occ_blocks::cpu.inst   871.065243                       # Average occupied blocks per requestor
system.cpu.icache.tags.occ_percent::cpu.inst     0.850650                       # Average percentage of cache occupancy
system.cpu.icache.tags.occ_percent::total     0.850650                       # Average percentage of cache occupancy
system.cpu.icache.tags.occ_task_id_blocks::1024         1024                       # Occupied blocks per task id
system.cpu.icache.tags.age_task_id_blocks_1024::0            9                       # Occupied blocks per task id
system.cpu.icache.tags.age_task_id_blocks_1024::1          142                       # Occupied blocks per task id
system.cpu.icache.tags.age_task_id_blocks_1024::2          175                       # Occupied blocks per task id
system.cpu.icache.tags.age_task_id_blocks_1024::3          101                       # Occupied blocks per task id
system.cpu.icache.tags.age_task_id_blocks_1024::4          597                       # Occupied blocks per task id
system.cpu.icache.tags.occ_task_id_percent::1024            1                       # Percentage of cache occupancy per task id
system.cpu.icache.tags.tag_accesses        2702555190                       # Number of tag accesses
system.cpu.icache.tags.data_accesses       2702555190                       # Number of data accesses
system.cpu.icache.pwrStateResidencyTicks::UNDEFINED 2393211443500                       # Cumulative time (in ticks) in various power states
system.cpu.icache.ReadReq_hits::cpu.inst    674213095                       # number of ReadReq hits
system.cpu.icache.ReadReq_hits::total       674213095                       # number of ReadReq hits
system.cpu.icache.demand_hits::cpu.inst     674213095                       # number of demand (read+write) hits
system.cpu.icache.demand_hits::total        674213095                       # number of demand (read+write) hits
system.cpu.icache.overall_hits::cpu.inst    674213095                       # number of overall hits
system.cpu.icache.overall_hits::total       674213095                       # number of overall hits
system.cpu.icache.ReadReq_misses::cpu.inst      1140562                       # number of ReadReq misses
system.cpu.icache.ReadReq_misses::total       1140562                       # number of ReadReq misses
system.cpu.icache.demand_misses::cpu.inst      1140562                       # number of demand (read+write) misses
system.cpu.icache.demand_misses::total        1140562                       # number of demand (read+write) misses
system.cpu.icache.overall_misses::cpu.inst      1140562                       # number of overall misses
system.cpu.icache.overall_misses::total       1140562                       # number of overall misses
system.cpu.icache.ReadReq_miss_latency::cpu.inst  15165180500                       # number of ReadReq miss cycles
system.cpu.icache.ReadReq_miss_latency::total  15165180500                       # number of ReadReq miss cycles
system.cpu.icache.demand_miss_latency::cpu.inst  15165180500                       # number of demand (read+write) miss cycles
system.cpu.icache.demand_miss_latency::total  15165180500                       # number of demand (read+write) miss cycles
system.cpu.icache.overall_miss_latency::cpu.inst  15165180500                       # number of overall miss cycles
system.cpu.icache.overall_miss_latency::total  15165180500                       # number of overall miss cycles
system.cpu.icache.ReadReq_accesses::cpu.inst    675353657                       # number of ReadReq accesses(hits+misses)
system.cpu.icache.ReadReq_accesses::total    675353657                       # number of ReadReq accesses(hits+misses)
system.cpu.icache.demand_accesses::cpu.inst    675353657                       # number of demand (read+write) accesses
system.cpu.icache.demand_accesses::total    675353657                       # number of demand (read+write) accesses
system.cpu.icache.overall_accesses::cpu.inst    675353657                       # number of overall (read+write) accesses
system.cpu.icache.overall_accesses::total    675353657                       # number of overall (read+write) accesses
system.cpu.icache.ReadReq_miss_rate::cpu.inst     0.001689                       # miss rate for ReadReq accesses
system.cpu.icache.ReadReq_miss_rate::total     0.001689                       # miss rate for ReadReq accesses
system.cpu.icache.demand_miss_rate::cpu.inst     0.001689                       # miss rate for demand accesses
system.cpu.icache.demand_miss_rate::total     0.001689                       # miss rate for demand accesses
system.cpu.icache.overall_miss_rate::cpu.inst     0.001689                       # miss rate for overall accesses
system.cpu.icache.overall_miss_rate::total     0.001689                       # miss rate for overall accesses
system.cpu.icache.ReadReq_avg_miss_latency::cpu.inst 13296.235102                       # average ReadReq miss latency
system.cpu.icache.ReadReq_avg_miss_latency::total 13296.235102                       # average ReadReq miss latency
system.cpu.icache.demand_avg_miss_latency::cpu.inst 13296.235102                       # average overall miss latency
system.cpu.icache.demand_avg_miss_latency::total 13296.235102                       # average overall miss latency
system.cpu.icache.overall_avg_miss_latency::cpu.inst 13296.235102                       # average overall miss latency
system.cpu.icache.overall_avg_miss_latency::total 13296.235102                       # average overall miss latency
system.cpu.icache.blocked_cycles::no_mshrs            0                       # number of cycles access was blocked
system.cpu.icache.blocked_cycles::no_targets            0                       # number of cycles access was blocked
system.cpu.icache.blocked::no_mshrs                 0                       # number of cycles access was blocked
system.cpu.icache.blocked::no_targets               0                       # number of cycles access was blocked
system.cpu.icache.avg_blocked_cycles::no_mshrs          nan                       # average number of cycles each access was blocked
system.cpu.icache.avg_blocked_cycles::no_targets          nan                       # average number of cycles each access was blocked
system.cpu.icache.writebacks::writebacks      1139538                       # number of writebacks
system.cpu.icache.writebacks::total           1139538                       # number of writebacks
system.cpu.icache.ReadReq_mshr_misses::cpu.inst      1140562                       # number of ReadReq MSHR misses
system.cpu.icache.ReadReq_mshr_misses::total      1140562                       # number of ReadReq MSHR misses
system.cpu.icache.demand_mshr_misses::cpu.inst      1140562                       # number of demand (read+write) MSHR misses
system.cpu.icache.demand_mshr_misses::total      1140562                       # number of demand (read+write) MSHR misses
system.cpu.icache.overall_mshr_misses::cpu.inst      1140562                       # number of overall MSHR misses
system.cpu.icache.overall_mshr_misses::total      1140562                       # number of overall MSHR misses
system.cpu.icache.ReadReq_mshr_miss_latency::cpu.inst  14024618500                       # number of ReadReq MSHR miss cycles
system.cpu.icache.ReadReq_mshr_miss_latency::total  14024618500                       # number of ReadReq MSHR miss cycles
system.cpu.icache.demand_mshr_miss_latency::cpu.inst  14024618500                       # number of demand (read+write) MSHR miss cycles
system.cpu.icache.demand_mshr_miss_latency::total  14024618500                       # number of demand (read+write) MSHR miss cycles
system.cpu.icache.overall_mshr_miss_latency::cpu.inst  14024618500                       # number of overall MSHR miss cycles
system.cpu.icache.overall_mshr_miss_latency::total  14024618500                       # number of overall MSHR miss cycles
system.cpu.icache.ReadReq_mshr_miss_rate::cpu.inst     0.001689                       # mshr miss rate for ReadReq accesses
system.cpu.icache.ReadReq_mshr_miss_rate::total     0.001689                       # mshr miss rate for ReadReq accesses
system.cpu.icache.demand_mshr_miss_rate::cpu.inst     0.001689                       # mshr miss rate for demand accesses
system.cpu.icache.demand_mshr_miss_rate::total     0.001689                       # mshr miss rate for demand accesses
system.cpu.icache.overall_mshr_miss_rate::cpu.inst     0.001689                       # mshr miss rate for overall accesses
system.cpu.icache.overall_mshr_miss_rate::total     0.001689                       # mshr miss rate for overall accesses
system.cpu.icache.ReadReq_avg_mshr_miss_latency::cpu.inst 12296.235102                       # average ReadReq mshr miss latency
system.cpu.icache.ReadReq_avg_mshr_miss_latency::total 12296.235102                       # average ReadReq mshr miss latency
system.cpu.icache.demand_avg_mshr_miss_latency::cpu.inst 12296.235102                       # average overall mshr miss latency
system.cpu.icache.demand_avg_mshr_miss_latency::total 12296.235102                       # average overall mshr miss latency
system.cpu.icache.overall_avg_mshr_miss_latency::cpu.inst 12296.235102                       # average overall mshr miss latency
system.cpu.icache.overall_avg_mshr_miss_latency::total 12296.235102                       # average overall mshr miss latency
system.cpu.itb_walker_cache.tags.pwrStateResidencyTicks::UNDEFINED 2393211443500                       # Cumulative time (in ticks) in various power states
system.cpu.itb_walker_cache.tags.replacements            0                       # number of replacements
system.cpu.itb_walker_cache.tags.tagsinuse            0                       # Cycle average of tags in use
system.cpu.itb_walker_cache.tags.total_refs            0                       # Total number of references to valid blocks.
system.cpu.itb_walker_cache.tags.sampled_refs            0                       # Sample count of references to valid blocks.
system.cpu.itb_walker_cache.tags.avg_refs          nan                       # Average number of references to valid blocks.
system.cpu.itb_walker_cache.tags.warmup_cycle            0                       # Cycle when the warmup percentage was hit.
system.cpu.itb_walker_cache.tags.tag_accesses            0                       # Number of tag accesses
system.cpu.itb_walker_cache.tags.data_accesses            0                       # Number of data accesses
system.cpu.itb_walker_cache.pwrStateResidencyTicks::UNDEFINED 2393211443500                       # Cumulative time (in ticks) in various power states
system.cpu.itb_walker_cache.blocked_cycles::no_mshrs            0                       # number of cycles access was blocked
system.cpu.itb_walker_cache.blocked_cycles::no_targets            0                       # number of cycles access was blocked
system.cpu.itb_walker_cache.blocked::no_mshrs            0                       # number of cycles access was blocked
system.cpu.itb_walker_cache.blocked::no_targets            0                       # number of cycles access was blocked
system.cpu.itb_walker_cache.avg_blocked_cycles::no_mshrs          nan                       # average number of cycles each access was blocked
system.cpu.itb_walker_cache.avg_blocked_cycles::no_targets          nan                       # average number of cycles each access was blocked
system.l2.tags.pwrStateResidencyTicks::UNDEFINED 2393211443500                       # Cumulative time (in ticks) in various power states
system.l2.tags.replacements                  16639317                       # number of replacements
system.l2.tags.tagsinuse                 32657.116689                       # Cycle average of tags in use
system.l2.tags.total_refs                    19202465                       # Total number of references to valid blocks.
system.l2.tags.sampled_refs                  16672085                       # Sample count of references to valid blocks.
system.l2.tags.avg_refs                      1.151773                       # Average number of references to valid blocks.
system.l2.tags.warmup_cycle               10759978000                       # Cycle when the warmup percentage was hit.
system.l2.tags.occ_blocks::writebacks      238.427513                       # Average occupied blocks per requestor
system.l2.tags.occ_blocks::cpu.inst        452.346181                       # Average occupied blocks per requestor
system.l2.tags.occ_blocks::cpu.data      31966.342995                       # Average occupied blocks per requestor
system.l2.tags.occ_percent::writebacks       0.007276                       # Average percentage of cache occupancy
system.l2.tags.occ_percent::cpu.inst         0.013805                       # Average percentage of cache occupancy
system.l2.tags.occ_percent::cpu.data         0.975535                       # Average percentage of cache occupancy
system.l2.tags.occ_percent::total            0.996616                       # Average percentage of cache occupancy
system.l2.tags.occ_task_id_blocks::1024         32768                       # Occupied blocks per task id
system.l2.tags.age_task_id_blocks_1024::1            8                       # Occupied blocks per task id
system.l2.tags.age_task_id_blocks_1024::2           91                       # Occupied blocks per task id
system.l2.tags.age_task_id_blocks_1024::3          944                       # Occupied blocks per task id
system.l2.tags.age_task_id_blocks_1024::4        31725                       # Occupied blocks per task id
system.l2.tags.occ_task_id_percent::1024            1                       # Percentage of cache occupancy per task id
system.l2.tags.tag_accesses                 160170901                       # Number of tag accesses
system.l2.tags.data_accesses                160170901                       # Number of data accesses
system.l2.pwrStateResidencyTicks::UNDEFINED 2393211443500                       # Cumulative time (in ticks) in various power states
system.l2.WritebackDirty_hits::writebacks     16754987                       # number of WritebackDirty hits
system.l2.WritebackDirty_hits::total         16754987                       # number of WritebackDirty hits
system.l2.WritebackClean_hits::writebacks      1139538                       # number of WritebackClean hits
system.l2.WritebackClean_hits::total          1139538                       # number of WritebackClean hits
system.l2.ReadExReq_hits::cpu.data              76403                       # number of ReadExReq hits
system.l2.ReadExReq_hits::total                 76403                       # number of ReadExReq hits
system.l2.ReadCleanReq_hits::cpu.inst         1137138                       # number of ReadCleanReq hits
system.l2.ReadCleanReq_hits::total            1137138                       # number of ReadCleanReq hits
system.l2.ReadSharedReq_hits::cpu.data          55100                       # number of ReadSharedReq hits
system.l2.ReadSharedReq_hits::total             55100                       # number of ReadSharedReq hits
system.l2.demand_hits::cpu.inst               1137138                       # number of demand (read+write) hits
system.l2.demand_hits::cpu.data                131503                       # number of demand (read+write) hits
system.l2.demand_hits::total                  1268641                       # number of demand (read+write) hits
system.l2.overall_hits::cpu.inst              1137138                       # number of overall hits
system.l2.overall_hits::cpu.data               131503                       # number of overall hits
system.l2.overall_hits::total                 1268641                       # number of overall hits
system.l2.ReadExReq_misses::cpu.data         16587761                       # number of ReadExReq misses
system.l2.ReadExReq_misses::total            16587761                       # number of ReadExReq misses
system.l2.ReadCleanReq_misses::cpu.inst          3424                       # number of ReadCleanReq misses
system.l2.ReadCleanReq_misses::total             3424                       # number of ReadCleanReq misses
system.l2.ReadSharedReq_misses::cpu.data        79062                       # number of ReadSharedReq misses
system.l2.ReadSharedReq_misses::total           79062                       # number of ReadSharedReq misses
system.l2.demand_misses::cpu.inst                3424                       # number of demand (read+write) misses
system.l2.demand_misses::cpu.data            16666823                       # number of demand (read+write) misses
system.l2.demand_misses::total               16670247                       # number of demand (read+write) misses
system.l2.overall_misses::cpu.inst               3424                       # number of overall misses
system.l2.overall_misses::cpu.data           16666823                       # number of overall misses
system.l2.overall_misses::total              16670247                       # number of overall misses
system.l2.ReadExReq_miss_latency::cpu.data 1380796481500                       # number of ReadExReq miss cycles
system.l2.ReadExReq_miss_latency::total  1380796481500                       # number of ReadExReq miss cycles
system.l2.ReadCleanReq_miss_latency::cpu.inst    373826500                       # number of ReadCleanReq miss cycles
system.l2.ReadCleanReq_miss_latency::total    373826500                       # number of ReadCleanReq miss cycles
system.l2.ReadSharedReq_miss_latency::cpu.data  24784288500                       # number of ReadSharedReq miss cycles
system.l2.ReadSharedReq_miss_latency::total  24784288500                       # number of ReadSharedReq miss cycles
system.l2.demand_miss_latency::cpu.inst     373826500                       # number of demand (read+write) miss cycles
system.l2.demand_miss_latency::cpu.data  1405580770000                       # number of demand (read+write) miss cycles
system.l2.demand_miss_latency::total     1405954596500                       # number of demand (read+write) miss cycles
system.l2.overall_miss_latency::cpu.inst    373826500                       # number of overall miss cycles
system.l2.overall_miss_latency::cpu.data 1405580770000                       # number of overall miss cycles
system.l2.overall_miss_latency::total    1405954596500                       # number of overall miss cycles
system.l2.WritebackDirty_accesses::writebacks     16754987                       # number of WritebackDirty accesses(hits+misses)
system.l2.WritebackDirty_accesses::total     16754987                       # number of WritebackDirty accesses(hits+misses)
system.l2.WritebackClean_accesses::writebacks      1139538                       # number of WritebackClean accesses(hits+misses)
system.l2.WritebackClean_accesses::total      1139538                       # number of WritebackClean accesses(hits+misses)
system.l2.ReadExReq_accesses::cpu.data       16664164                       # number of ReadExReq accesses(hits+misses)
system.l2.ReadExReq_accesses::total          16664164                       # number of ReadExReq accesses(hits+misses)
system.l2.ReadCleanReq_accesses::cpu.inst      1140562                       # number of ReadCleanReq accesses(hits+misses)
system.l2.ReadCleanReq_accesses::total        1140562                       # number of ReadCleanReq accesses(hits+misses)
system.l2.ReadSharedReq_accesses::cpu.data       134162                       # number of ReadSharedReq accesses(hits+misses)
system.l2.ReadSharedReq_accesses::total        134162                       # number of ReadSharedReq accesses(hits+misses)
system.l2.demand_accesses::cpu.inst           1140562                       # number of demand (read+write) accesses
system.l2.demand_accesses::cpu.data          16798326                       # number of demand (read+write) accesses
system.l2.demand_accesses::total             17938888                       # number of demand (read+write) accesses
system.l2.overall_accesses::cpu.inst          1140562                       # number of overall (read+write) accesses
system.l2.overall_accesses::cpu.data         16798326                       # number of overall (read+write) accesses
system.l2.overall_accesses::total            17938888                       # number of overall (read+write) accesses
system.l2.ReadExReq_miss_rate::cpu.data      0.995415                       # miss rate for ReadExReq accesses
system.l2.ReadExReq_miss_rate::total         0.995415                       # miss rate for ReadExReq accesses
system.l2.ReadCleanReq_miss_rate::cpu.inst     0.003002                       # miss rate for ReadCleanReq accesses
system.l2.ReadCleanReq_miss_rate::total      0.003002                       # miss rate for ReadCleanReq accesses
system.l2.ReadSharedReq_miss_rate::cpu.data     0.589302                       # miss rate for ReadSharedReq accesses
system.l2.ReadSharedReq_miss_rate::total     0.589302                       # miss rate for ReadSharedReq accesses
system.l2.demand_miss_rate::cpu.inst         0.003002                       # miss rate for demand accesses
system.l2.demand_miss_rate::cpu.data         0.992172                       # miss rate for demand accesses
system.l2.demand_miss_rate::total            0.929280                       # miss rate for demand accesses
system.l2.overall_miss_rate::cpu.inst        0.003002                       # miss rate for overall accesses
system.l2.overall_miss_rate::cpu.data        0.992172                       # miss rate for overall accesses
system.l2.overall_miss_rate::total           0.929280                       # miss rate for overall accesses
system.l2.ReadExReq_avg_miss_latency::cpu.data 83241.884272                       # average ReadExReq miss latency
system.l2.ReadExReq_avg_miss_latency::total 83241.884272                       # average ReadExReq miss latency
system.l2.ReadCleanReq_avg_miss_latency::cpu.inst 109178.300234                       # average ReadCleanReq miss latency
system.l2.ReadCleanReq_avg_miss_latency::total 109178.300234                       # average ReadCleanReq miss latency
system.l2.ReadSharedReq_avg_miss_latency::cpu.data 313479.149275                       # average ReadSharedReq miss latency
system.l2.ReadSharedReq_avg_miss_latency::total 313479.149275                       # average ReadSharedReq miss latency
system.l2.demand_avg_miss_latency::cpu.inst 109178.300234                       # average overall miss latency
system.l2.demand_avg_miss_latency::cpu.data 84334.055147                       # average overall miss latency
system.l2.demand_avg_miss_latency::total 84339.158052                       # average overall miss latency
system.l2.overall_avg_miss_latency::cpu.inst 109178.300234                       # average overall miss latency
system.l2.overall_avg_miss_latency::cpu.data 84334.055147                       # average overall miss latency
system.l2.overall_avg_miss_latency::total 84339.158052                       # average overall miss latency
system.l2.blocked_cycles::no_mshrs                  0                       # number of cycles access was blocked
system.l2.blocked_cycles::no_targets                0                       # number of cycles access was blocked
system.l2.blocked::no_mshrs                         0                       # number of cycles access was blocked
system.l2.blocked::no_targets                       0                       # number of cycles access was blocked
system.l2.avg_blocked_cycles::no_mshrs            nan                       # average number of cycles each access was blocked
system.l2.avg_blocked_cycles::no_targets          nan                       # average number of cycles each access was blocked
system.l2.writebacks::writebacks             16625621                       # number of writebacks
system.l2.writebacks::total                  16625621                       # number of writebacks
system.l2.CleanEvict_mshr_misses::writebacks          154                       # number of CleanEvict MSHR misses
system.l2.CleanEvict_mshr_misses::total           154                       # number of CleanEvict MSHR misses
system.l2.ReadExReq_mshr_misses::cpu.data     16587761                       # number of ReadExReq MSHR misses
system.l2.ReadExReq_mshr_misses::total       16587761                       # number of ReadExReq MSHR misses
system.l2.ReadCleanReq_mshr_misses::cpu.inst         3424                       # number of ReadCleanReq MSHR misses
system.l2.ReadCleanReq_mshr_misses::total         3424                       # number of ReadCleanReq MSHR misses
system.l2.ReadSharedReq_mshr_misses::cpu.data        79062                       # number of ReadSharedReq MSHR misses
system.l2.ReadSharedReq_mshr_misses::total        79062                       # number of ReadSharedReq MSHR misses
system.l2.demand_mshr_misses::cpu.inst           3424                       # number of demand (read+write) MSHR misses
system.l2.demand_mshr_misses::cpu.data       16666823                       # number of demand (read+write) MSHR misses
system.l2.demand_mshr_misses::total          16670247                       # number of demand (read+write) MSHR misses
system.l2.overall_mshr_misses::cpu.inst          3424                       # number of overall MSHR misses
system.l2.overall_mshr_misses::cpu.data      16666823                       # number of overall MSHR misses
system.l2.overall_mshr_misses::total         16670247                       # number of overall MSHR misses
system.l2.ReadExReq_mshr_miss_latency::cpu.data 1214918871500                       # number of ReadExReq MSHR miss cycles
system.l2.ReadExReq_mshr_miss_latency::total 1214918871500                       # number of ReadExReq MSHR miss cycles
system.l2.ReadCleanReq_mshr_miss_latency::cpu.inst    339586500                       # number of ReadCleanReq MSHR miss cycles
system.l2.ReadCleanReq_mshr_miss_latency::total    339586500                       # number of ReadCleanReq MSHR miss cycles
system.l2.ReadSharedReq_mshr_miss_latency::cpu.data  23993668500                       # number of ReadSharedReq MSHR miss cycles
system.l2.ReadSharedReq_mshr_miss_latency::total  23993668500                       # number of ReadSharedReq MSHR miss cycles
system.l2.demand_mshr_miss_latency::cpu.inst    339586500                       # number of demand (read+write) MSHR miss cycles
system.l2.demand_mshr_miss_latency::cpu.data 1238912540000                       # number of demand (read+write) MSHR miss cycles
system.l2.demand_mshr_miss_latency::total 1239252126500                       # number of demand (read+write) MSHR miss cycles
system.l2.overall_mshr_miss_latency::cpu.inst    339586500                       # number of overall MSHR miss cycles
system.l2.overall_mshr_miss_latency::cpu.data 1238912540000                       # number of overall MSHR miss cycles
system.l2.overall_mshr_miss_latency::total 1239252126500                       # number of overall MSHR miss cycles
system.l2.CleanEvict_mshr_miss_rate::writebacks          inf                       # mshr miss rate for CleanEvict accesses
system.l2.CleanEvict_mshr_miss_rate::total          inf                       # mshr miss rate for CleanEvict accesses
system.l2.ReadExReq_mshr_miss_rate::cpu.data     0.995415                       # mshr miss rate for ReadExReq accesses
system.l2.ReadExReq_mshr_miss_rate::total     0.995415                       # mshr miss rate for ReadExReq accesses
system.l2.ReadCleanReq_mshr_miss_rate::cpu.inst     0.003002                       # mshr miss rate for ReadCleanReq accesses
system.l2.ReadCleanReq_mshr_miss_rate::total     0.003002                       # mshr miss rate for ReadCleanReq accesses
system.l2.ReadSharedReq_mshr_miss_rate::cpu.data     0.589302                       # mshr miss rate for ReadSharedReq accesses
system.l2.ReadSharedReq_mshr_miss_rate::total     0.589302                       # mshr miss rate for ReadSharedReq accesses
system.l2.demand_mshr_miss_rate::cpu.inst     0.003002                       # mshr miss rate for demand accesses
system.l2.demand_mshr_miss_rate::cpu.data     0.992172                       # mshr miss rate for demand accesses
system.l2.demand_mshr_miss_rate::total       0.929280                       # mshr miss rate for demand accesses
system.l2.overall_mshr_miss_rate::cpu.inst     0.003002                       # mshr miss rate for overall accesses
system.l2.overall_mshr_miss_rate::cpu.data     0.992172                       # mshr miss rate for overall accesses
system.l2.overall_mshr_miss_rate::total      0.929280                       # mshr miss rate for overall accesses
system.l2.ReadExReq_avg_mshr_miss_latency::cpu.data 73241.884272                       # average ReadExReq mshr miss latency
system.l2.ReadExReq_avg_mshr_miss_latency::total 73241.884272                       # average ReadExReq mshr miss latency
system.l2.ReadCleanReq_avg_mshr_miss_latency::cpu.inst 99178.300234                       # average ReadCleanReq mshr miss latency
system.l2.ReadCleanReq_avg_mshr_miss_latency::total 99178.300234                       # average ReadCleanReq mshr miss latency
system.l2.ReadSharedReq_avg_mshr_miss_latency::cpu.data 303479.149275                       # average ReadSharedReq mshr miss latency
system.l2.ReadSharedReq_avg_mshr_miss_latency::total 303479.149275                       # average ReadSharedReq mshr miss latency
system.l2.demand_avg_mshr_miss_latency::cpu.inst 99178.300234                       # average overall mshr miss latency
system.l2.demand_avg_mshr_miss_latency::cpu.data 74334.055147                       # average overall mshr miss latency
system.l2.demand_avg_mshr_miss_latency::total 74339.158052                       # average overall mshr miss latency
system.l2.overall_avg_mshr_miss_latency::cpu.inst 99178.300234                       # average overall mshr miss latency
system.l2.overall_avg_mshr_miss_latency::cpu.data 74334.055147                       # average overall mshr miss latency
system.l2.overall_avg_mshr_miss_latency::total 74339.158052                       # average overall mshr miss latency
system.membus.snoop_filter.tot_requests      33307402                       # Total number of requests made to the snoop filter.
system.membus.snoop_filter.hit_single_requests     16637155                       # Number of requests hitting in the snoop filter with a single holder of the requested data.
system.membus.snoop_filter.hit_multi_requests            0                       # Number of requests hitting in the snoop filter with multiple (>1) holders of the requested data.
system.membus.snoop_filter.tot_snoops               0                       # Total number of snoops made to the snoop filter.
system.membus.snoop_filter.hit_single_snoops            0                       # Number of snoops hitting in the snoop filter with a single holder of the requested data.
system.membus.snoop_filter.hit_multi_snoops            0                       # Number of snoops hitting in the snoop filter with multiple (>1) holders of the requested data.
system.membus.pwrStateResidencyTicks::UNDEFINED 2393211443500                       # Cumulative time (in ticks) in various power states
system.membus.trans_dist::ReadResp              82486                       # Transaction distribution
system.membus.trans_dist::WritebackDirty     16625621                       # Transaction distribution
system.membus.trans_dist::CleanEvict            11534                       # Transaction distribution
system.membus.trans_dist::ReadExReq          16587761                       # Transaction distribution
system.membus.trans_dist::ReadExResp         16587761                       # Transaction distribution
system.membus.trans_dist::ReadSharedReq         82486                       # Transaction distribution
system.membus.pkt_count_system.l2.mem_side::system.mem_ctrls.port     49977649                       # Packet count per connected master and slave (bytes)
system.membus.pkt_count_system.l2.mem_side::total     49977649                       # Packet count per connected master and slave (bytes)
system.membus.pkt_count::total               49977649                       # Packet count per connected master and slave (bytes)
system.membus.pkt_size_system.l2.mem_side::system.mem_ctrls.port   1065467776                       # Cumulative packet size per connected master and slave (bytes)
system.membus.pkt_size_system.l2.mem_side::total   1065467776                       # Cumulative packet size per connected master and slave (bytes)
system.membus.pkt_size::total              1065467776                       # Cumulative packet size per connected master and slave (bytes)
system.membus.snoops                                0                       # Total snoops (count)
system.membus.snoopTraffic                          0                       # Total snoop traffic (bytes)
system.membus.snoop_fanout::samples          16670247                       # Request fanout histogram
system.membus.snoop_fanout::mean                    0                       # Request fanout histogram
system.membus.snoop_fanout::stdev                   0                       # Request fanout histogram
system.membus.snoop_fanout::underflows              0      0.00%      0.00% # Request fanout histogram
system.membus.snoop_fanout::0                16670247    100.00%    100.00% # Request fanout histogram
system.membus.snoop_fanout::1                       0      0.00%    100.00% # Request fanout histogram
system.membus.snoop_fanout::overflows               0      0.00%    100.00% # Request fanout histogram
system.membus.snoop_fanout::min_value               0                       # Request fanout histogram
system.membus.snoop_fanout::max_value               0                       # Request fanout histogram
system.membus.snoop_fanout::total            16670247                       # Request fanout histogram
system.membus.reqLayer2.occupancy         66558667000                       # Layer occupancy (ticks)
system.membus.reqLayer2.utilization               2.8                       # Layer utilization (%)
system.membus.respLayer1.occupancy        54440096000                       # Layer occupancy (ticks)
system.membus.respLayer1.utilization              2.3                       # Layer utilization (%)
system.tol2bus.snoop_filter.tot_requests     35874704                       # Total number of requests made to the snoop filter.
system.tol2bus.snoop_filter.hit_single_requests     17935816                       # Number of requests hitting in the snoop filter with a single holder of the requested data.
system.tol2bus.snoop_filter.hit_multi_requests            0                       # Number of requests hitting in the snoop filter with multiple (>1) holders of the requested data.
system.tol2bus.snoop_filter.tot_snoops           2316                       # Total number of snoops made to the snoop filter.
system.tol2bus.snoop_filter.hit_single_snoops         2316                       # Number of snoops hitting in the snoop filter with a single holder of the requested data.
system.tol2bus.snoop_filter.hit_multi_snoops            0                       # Number of snoops hitting in the snoop filter with multiple (>1) holders of the requested data.
system.tol2bus.pwrStateResidencyTicks::UNDEFINED 2393211443500                       # Cumulative time (in ticks) in various power states
system.tol2bus.trans_dist::ReadResp           1274724                       # Transaction distribution
system.tol2bus.trans_dist::WritebackDirty     33380608                       # Transaction distribution
system.tol2bus.trans_dist::WritebackClean      1139538                       # Transaction distribution
system.tol2bus.trans_dist::CleanEvict           54987                       # Transaction distribution
system.tol2bus.trans_dist::ReadExReq         16664164                       # Transaction distribution
system.tol2bus.trans_dist::ReadExResp        16664164                       # Transaction distribution
system.tol2bus.trans_dist::ReadCleanReq       1140562                       # Transaction distribution
system.tol2bus.trans_dist::ReadSharedReq       134162                       # Transaction distribution
system.tol2bus.pkt_count_system.cpu.icache.mem_side::system.l2.cpu_side      3420662                       # Packet count per connected master and slave (bytes)
system.tol2bus.pkt_count_system.cpu.dcache.mem_side::system.l2.cpu_side     50392930                       # Packet count per connected master and slave (bytes)
system.tol2bus.pkt_count::total              53813592                       # Packet count per connected master and slave (bytes)
system.tol2bus.pkt_size_system.cpu.icache.mem_side::system.l2.cpu_side     72963200                       # Cumulative packet size per connected master and slave (bytes)
system.tol2bus.pkt_size_system.cpu.dcache.mem_side::system.l2.cpu_side   1073706016                       # Cumulative packet size per connected master and slave (bytes)
system.tol2bus.pkt_size::total             1146669216                       # Cumulative packet size per connected master and slave (bytes)
system.tol2bus.snoops                        16639317                       # Total snoops (count)
system.tol2bus.snoopTraffic                 532019872                       # Total snoop traffic (bytes)
system.tol2bus.snoop_fanout::samples         34578205                       # Request fanout histogram
system.tol2bus.snoop_fanout::mean            0.000067                       # Request fanout histogram
system.tol2bus.snoop_fanout::stdev           0.008184                       # Request fanout histogram
system.tol2bus.snoop_fanout::underflows             0      0.00%      0.00% # Request fanout histogram
system.tol2bus.snoop_fanout::0               34575889     99.99%     99.99% # Request fanout histogram
system.tol2bus.snoop_fanout::1                   2316      0.01%    100.00% # Request fanout histogram
system.tol2bus.snoop_fanout::2                      0      0.00%    100.00% # Request fanout histogram
system.tol2bus.snoop_fanout::3                      0      0.00%    100.00% # Request fanout histogram
system.tol2bus.snoop_fanout::4                      0      0.00%    100.00% # Request fanout histogram
system.tol2bus.snoop_fanout::overflows              0      0.00%    100.00% # Request fanout histogram
system.tol2bus.snoop_fanout::min_value              0                       # Request fanout histogram
system.tol2bus.snoop_fanout::max_value              1                       # Request fanout histogram
system.tol2bus.snoop_fanout::total           34578205                       # Request fanout histogram
system.tol2bus.reqLayer0.occupancy        26884614500                       # Layer occupancy (ticks)
system.tol2bus.reqLayer0.utilization              1.1                       # Layer utilization (%)
system.tol2bus.respLayer0.occupancy        1140562000                       # Layer occupancy (ticks)
system.tol2bus.respLayer0.utilization             0.0                       # Layer utilization (%)
system.tol2bus.respLayer1.occupancy       16798326000                       # Layer occupancy (ticks)
system.tol2bus.respLayer1.utilization             0.7                       # Layer utilization (%)

---------- End Simulation Statistics   ----------
