
---------- Begin Simulation Statistics ----------
sim_seconds                                  1.099979                       # Number of seconds simulated
sim_ticks                                1099978820500                       # Number of ticks simulated
final_tick                               1099978820500                       # Number of ticks from beginning of simulation (restored from checkpoints and never reset)
sim_freq                                 1000000000000                       # Frequency of simulated ticks
host_inst_rate                                 400759                       # Simulator instruction rate (inst/s)
host_op_rate                                   585469                       # Simulator op (including micro ops) rate (op/s)
host_tick_rate                              881653107                       # Simulator tick rate (ticks/s)
host_mem_usage                                 658424                       # Number of bytes of host memory used
host_seconds                                  1247.63                       # Real time elapsed on the host
sim_insts                                   500000001                       # Number of instructions simulated
sim_ops                                     730450447                       # Number of ops (including micro ops) simulated
system.voltage_domain.voltage                       1                       # Voltage in Volts
system.clk_domain.clock                          1000                       # Clock period in ticks
system.mem_ctrls.pwrStateResidencyTicks::UNDEFINED 1099978820500                       # Cumulative time (in ticks) in various power states
system.mem_ctrls.bytes_read::cpu.inst           58240                       # Number of bytes read from this memory
system.mem_ctrls.bytes_read::cpu.data        31513600                       # Number of bytes read from this memory
system.mem_ctrls.bytes_read::total           31571840                       # Number of bytes read from this memory
system.mem_ctrls.bytes_inst_read::cpu.inst        58240                       # Number of instructions bytes read from this memory
system.mem_ctrls.bytes_inst_read::total         58240                       # Number of instructions bytes read from this memory
system.mem_ctrls.bytes_written::writebacks     17912736                       # Number of bytes written to this memory
system.mem_ctrls.bytes_written::total        17912736                       # Number of bytes written to this memory
system.mem_ctrls.num_reads::cpu.inst             1820                       # Number of read requests responded to by this memory
system.mem_ctrls.num_reads::cpu.data           984800                       # Number of read requests responded to by this memory
system.mem_ctrls.num_reads::total              986620                       # Number of read requests responded to by this memory
system.mem_ctrls.num_writes::writebacks        559773                       # Number of write requests responded to by this memory
system.mem_ctrls.num_writes::total             559773                       # Number of write requests responded to by this memory
system.mem_ctrls.bw_read::cpu.inst              52946                       # Total read bandwidth from this memory (bytes/s)
system.mem_ctrls.bw_read::cpu.data           28649279                       # Total read bandwidth from this memory (bytes/s)
system.mem_ctrls.bw_read::total              28702225                       # Total read bandwidth from this memory (bytes/s)
system.mem_ctrls.bw_inst_read::cpu.inst         52946                       # Instruction read bandwidth from this memory (bytes/s)
system.mem_ctrls.bw_inst_read::total            52946                       # Instruction read bandwidth from this memory (bytes/s)
system.mem_ctrls.bw_write::writebacks        16284619                       # Write bandwidth from this memory (bytes/s)
system.mem_ctrls.bw_write::total             16284619                       # Write bandwidth from this memory (bytes/s)
system.mem_ctrls.bw_total::writebacks        16284619                       # Total bandwidth to/from this memory (bytes/s)
system.mem_ctrls.bw_total::cpu.inst             52946                       # Total bandwidth to/from this memory (bytes/s)
system.mem_ctrls.bw_total::cpu.data          28649279                       # Total bandwidth to/from this memory (bytes/s)
system.mem_ctrls.bw_total::total             44986844                       # Total bandwidth to/from this memory (bytes/s)
system.mem_ctrls.readReqs                      986620                       # Number of read requests accepted
system.mem_ctrls.writeReqs                     559773                       # Number of write requests accepted
system.mem_ctrls.readBursts                    986620                       # Number of DRAM read bursts, including those serviced by the write queue
system.mem_ctrls.writeBursts                   559773                       # Number of DRAM write bursts, including those merged in the write queue
system.mem_ctrls.bytesReadDRAM               63118848                       # Total number of bytes read from DRAM
system.mem_ctrls.bytesReadWrQ                   24832                       # Total number of bytes read from write queue
system.mem_ctrls.bytesWritten                31631616                       # Total number of bytes written to DRAM
system.mem_ctrls.bytesReadSys                31571840                       # Total read bytes from the system interface side
system.mem_ctrls.bytesWrittenSys             17912736                       # Total written bytes from the system interface side
system.mem_ctrls.servicedByWrQ                    388                       # Number of DRAM read bursts serviced by the write queue
system.mem_ctrls.mergedWrBursts                 65499                       # Number of DRAM write bursts merged with an existing one
system.mem_ctrls.neitherReadNorWriteReqs            0                       # Number of requests that are neither read nor write
system.mem_ctrls.perBankRdBursts::0             64470                       # Per bank write bursts
system.mem_ctrls.perBankRdBursts::1             62480                       # Per bank write bursts
system.mem_ctrls.perBankRdBursts::2             61036                       # Per bank write bursts
system.mem_ctrls.perBankRdBursts::3             60465                       # Per bank write bursts
system.mem_ctrls.perBankRdBursts::4             59667                       # Per bank write bursts
system.mem_ctrls.perBankRdBursts::5             60178                       # Per bank write bursts
system.mem_ctrls.perBankRdBursts::6             62131                       # Per bank write bursts
system.mem_ctrls.perBankRdBursts::7             61191                       # Per bank write bursts
system.mem_ctrls.perBankRdBursts::8             58804                       # Per bank write bursts
system.mem_ctrls.perBankRdBursts::9             57852                       # Per bank write bursts
system.mem_ctrls.perBankRdBursts::10            61078                       # Per bank write bursts
system.mem_ctrls.perBankRdBursts::11            62667                       # Per bank write bursts
system.mem_ctrls.perBankRdBursts::12            63520                       # Per bank write bursts
system.mem_ctrls.perBankRdBursts::13            62864                       # Per bank write bursts
system.mem_ctrls.perBankRdBursts::14            63686                       # Per bank write bursts
system.mem_ctrls.perBankRdBursts::15            64143                       # Per bank write bursts
system.mem_ctrls.perBankWrBursts::0             32309                       # Per bank write bursts
system.mem_ctrls.perBankWrBursts::1             31253                       # Per bank write bursts
system.mem_ctrls.perBankWrBursts::2             30269                       # Per bank write bursts
system.mem_ctrls.perBankWrBursts::3             29953                       # Per bank write bursts
system.mem_ctrls.perBankWrBursts::4             29387                       # Per bank write bursts
system.mem_ctrls.perBankWrBursts::5             29265                       # Per bank write bursts
system.mem_ctrls.perBankWrBursts::6             30102                       # Per bank write bursts
system.mem_ctrls.perBankWrBursts::7             30296                       # Per bank write bursts
system.mem_ctrls.perBankWrBursts::8             30329                       # Per bank write bursts
system.mem_ctrls.perBankWrBursts::9             30162                       # Per bank write bursts
system.mem_ctrls.perBankWrBursts::10            31069                       # Per bank write bursts
system.mem_ctrls.perBankWrBursts::11            31322                       # Per bank write bursts
system.mem_ctrls.perBankWrBursts::12            31729                       # Per bank write bursts
system.mem_ctrls.perBankWrBursts::13            32072                       # Per bank write bursts
system.mem_ctrls.perBankWrBursts::14            32438                       # Per bank write bursts
system.mem_ctrls.perBankWrBursts::15            32289                       # Per bank write bursts
system.mem_ctrls.numRdRetry                         0                       # Number of times read queue was full causing retry
system.mem_ctrls.numWrRetry                         0                       # Number of times write queue was full causing retry
system.mem_ctrls.totGap                  1099975575500                       # Total gap between requests
system.mem_ctrls.readPktSize::0                     0                       # Read request sizes (log2)
system.mem_ctrls.readPktSize::1                     0                       # Read request sizes (log2)
system.mem_ctrls.readPktSize::2                     0                       # Read request sizes (log2)
system.mem_ctrls.readPktSize::3                     0                       # Read request sizes (log2)
system.mem_ctrls.readPktSize::4                     0                       # Read request sizes (log2)
system.mem_ctrls.readPktSize::5                986620                       # Read request sizes (log2)
system.mem_ctrls.readPktSize::6                     0                       # Read request sizes (log2)
system.mem_ctrls.writePktSize::0                    0                       # Write request sizes (log2)
system.mem_ctrls.writePktSize::1                    0                       # Write request sizes (log2)
system.mem_ctrls.writePktSize::2                    0                       # Write request sizes (log2)
system.mem_ctrls.writePktSize::3                    0                       # Write request sizes (log2)
system.mem_ctrls.writePktSize::4                    0                       # Write request sizes (log2)
system.mem_ctrls.writePktSize::5               559773                       # Write request sizes (log2)
system.mem_ctrls.writePktSize::6                    0                       # Write request sizes (log2)
system.mem_ctrls.rdQLenPdf::0                  969791                       # What read queue length does an incoming req see
system.mem_ctrls.rdQLenPdf::1                    8180                       # What read queue length does an incoming req see
system.mem_ctrls.rdQLenPdf::2                    8247                       # What read queue length does an incoming req see
system.mem_ctrls.rdQLenPdf::3                      14                       # What read queue length does an incoming req see
system.mem_ctrls.rdQLenPdf::4                       0                       # What read queue length does an incoming req see
system.mem_ctrls.rdQLenPdf::5                       0                       # What read queue length does an incoming req see
system.mem_ctrls.rdQLenPdf::6                       0                       # What read queue length does an incoming req see
system.mem_ctrls.rdQLenPdf::7                       0                       # What read queue length does an incoming req see
system.mem_ctrls.rdQLenPdf::8                       0                       # What read queue length does an incoming req see
system.mem_ctrls.rdQLenPdf::9                       0                       # What read queue length does an incoming req see
system.mem_ctrls.rdQLenPdf::10                      0                       # What read queue length does an incoming req see
system.mem_ctrls.rdQLenPdf::11                      0                       # What read queue length does an incoming req see
system.mem_ctrls.rdQLenPdf::12                      0                       # What read queue length does an incoming req see
system.mem_ctrls.rdQLenPdf::13                      0                       # What read queue length does an incoming req see
system.mem_ctrls.rdQLenPdf::14                      0                       # What read queue length does an incoming req see
system.mem_ctrls.rdQLenPdf::15                      0                       # What read queue length does an incoming req see
system.mem_ctrls.rdQLenPdf::16                      0                       # What read queue length does an incoming req see
system.mem_ctrls.rdQLenPdf::17                      0                       # What read queue length does an incoming req see
system.mem_ctrls.rdQLenPdf::18                      0                       # What read queue length does an incoming req see
system.mem_ctrls.rdQLenPdf::19                      0                       # What read queue length does an incoming req see
system.mem_ctrls.rdQLenPdf::20                      0                       # What read queue length does an incoming req see
system.mem_ctrls.rdQLenPdf::21                      0                       # What read queue length does an incoming req see
system.mem_ctrls.rdQLenPdf::22                      0                       # What read queue length does an incoming req see
system.mem_ctrls.rdQLenPdf::23                      0                       # What read queue length does an incoming req see
system.mem_ctrls.rdQLenPdf::24                      0                       # What read queue length does an incoming req see
system.mem_ctrls.rdQLenPdf::25                      0                       # What read queue length does an incoming req see
system.mem_ctrls.rdQLenPdf::26                      0                       # What read queue length does an incoming req see
system.mem_ctrls.rdQLenPdf::27                      0                       # What read queue length does an incoming req see
system.mem_ctrls.rdQLenPdf::28                      0                       # What read queue length does an incoming req see
system.mem_ctrls.rdQLenPdf::29                      0                       # What read queue length does an incoming req see
system.mem_ctrls.rdQLenPdf::30                      0                       # What read queue length does an incoming req see
system.mem_ctrls.rdQLenPdf::31                      0                       # What read queue length does an incoming req see
system.mem_ctrls.wrQLenPdf::0                       1                       # What write queue length does an incoming req see
system.mem_ctrls.wrQLenPdf::1                       1                       # What write queue length does an incoming req see
system.mem_ctrls.wrQLenPdf::2                       1                       # What write queue length does an incoming req see
system.mem_ctrls.wrQLenPdf::3                       1                       # What write queue length does an incoming req see
system.mem_ctrls.wrQLenPdf::4                       1                       # What write queue length does an incoming req see
system.mem_ctrls.wrQLenPdf::5                       1                       # What write queue length does an incoming req see
system.mem_ctrls.wrQLenPdf::6                       1                       # What write queue length does an incoming req see
system.mem_ctrls.wrQLenPdf::7                       1                       # What write queue length does an incoming req see
system.mem_ctrls.wrQLenPdf::8                       1                       # What write queue length does an incoming req see
system.mem_ctrls.wrQLenPdf::9                       1                       # What write queue length does an incoming req see
system.mem_ctrls.wrQLenPdf::10                      1                       # What write queue length does an incoming req see
system.mem_ctrls.wrQLenPdf::11                      1                       # What write queue length does an incoming req see
system.mem_ctrls.wrQLenPdf::12                      1                       # What write queue length does an incoming req see
system.mem_ctrls.wrQLenPdf::13                      1                       # What write queue length does an incoming req see
system.mem_ctrls.wrQLenPdf::14                      1                       # What write queue length does an incoming req see
system.mem_ctrls.wrQLenPdf::15                  16289                       # What write queue length does an incoming req see
system.mem_ctrls.wrQLenPdf::16                  17518                       # What write queue length does an incoming req see
system.mem_ctrls.wrQLenPdf::17                  28784                       # What write queue length does an incoming req see
system.mem_ctrls.wrQLenPdf::18                  28776                       # What write queue length does an incoming req see
system.mem_ctrls.wrQLenPdf::19                  28777                       # What write queue length does an incoming req see
system.mem_ctrls.wrQLenPdf::20                  28778                       # What write queue length does an incoming req see
system.mem_ctrls.wrQLenPdf::21                  28778                       # What write queue length does an incoming req see
system.mem_ctrls.wrQLenPdf::22                  28777                       # What write queue length does an incoming req see
system.mem_ctrls.wrQLenPdf::23                  28777                       # What write queue length does an incoming req see
system.mem_ctrls.wrQLenPdf::24                  28777                       # What write queue length does an incoming req see
system.mem_ctrls.wrQLenPdf::25                  28781                       # What write queue length does an incoming req see
system.mem_ctrls.wrQLenPdf::26                  28778                       # What write queue length does an incoming req see
system.mem_ctrls.wrQLenPdf::27                  28778                       # What write queue length does an incoming req see
system.mem_ctrls.wrQLenPdf::28                  28778                       # What write queue length does an incoming req see
system.mem_ctrls.wrQLenPdf::29                  28779                       # What write queue length does an incoming req see
system.mem_ctrls.wrQLenPdf::30                  28781                       # What write queue length does an incoming req see
system.mem_ctrls.wrQLenPdf::31                  28777                       # What write queue length does an incoming req see
system.mem_ctrls.wrQLenPdf::32                  28776                       # What write queue length does an incoming req see
system.mem_ctrls.wrQLenPdf::33                      0                       # What write queue length does an incoming req see
system.mem_ctrls.wrQLenPdf::34                      0                       # What write queue length does an incoming req see
system.mem_ctrls.wrQLenPdf::35                      0                       # What write queue length does an incoming req see
system.mem_ctrls.wrQLenPdf::36                      0                       # What write queue length does an incoming req see
system.mem_ctrls.wrQLenPdf::37                      0                       # What write queue length does an incoming req see
system.mem_ctrls.wrQLenPdf::38                      0                       # What write queue length does an incoming req see
system.mem_ctrls.wrQLenPdf::39                      0                       # What write queue length does an incoming req see
system.mem_ctrls.wrQLenPdf::40                      0                       # What write queue length does an incoming req see
system.mem_ctrls.wrQLenPdf::41                      0                       # What write queue length does an incoming req see
system.mem_ctrls.wrQLenPdf::42                      0                       # What write queue length does an incoming req see
system.mem_ctrls.wrQLenPdf::43                      0                       # What write queue length does an incoming req see
system.mem_ctrls.wrQLenPdf::44                      0                       # What write queue length does an incoming req see
system.mem_ctrls.wrQLenPdf::45                      0                       # What write queue length does an incoming req see
system.mem_ctrls.wrQLenPdf::46                      0                       # What write queue length does an incoming req see
system.mem_ctrls.wrQLenPdf::47                      0                       # What write queue length does an incoming req see
system.mem_ctrls.wrQLenPdf::48                      0                       # What write queue length does an incoming req see
system.mem_ctrls.wrQLenPdf::49                      0                       # What write queue length does an incoming req see
system.mem_ctrls.wrQLenPdf::50                      0                       # What write queue length does an incoming req see
system.mem_ctrls.wrQLenPdf::51                      0                       # What write queue length does an incoming req see
system.mem_ctrls.wrQLenPdf::52                      0                       # What write queue length does an incoming req see
system.mem_ctrls.wrQLenPdf::53                      0                       # What write queue length does an incoming req see
system.mem_ctrls.wrQLenPdf::54                      0                       # What write queue length does an incoming req see
system.mem_ctrls.wrQLenPdf::55                      0                       # What write queue length does an incoming req see
system.mem_ctrls.wrQLenPdf::56                      0                       # What write queue length does an incoming req see
system.mem_ctrls.wrQLenPdf::57                      0                       # What write queue length does an incoming req see
system.mem_ctrls.wrQLenPdf::58                      0                       # What write queue length does an incoming req see
system.mem_ctrls.wrQLenPdf::59                      0                       # What write queue length does an incoming req see
system.mem_ctrls.wrQLenPdf::60                      0                       # What write queue length does an incoming req see
system.mem_ctrls.wrQLenPdf::61                      0                       # What write queue length does an incoming req see
system.mem_ctrls.wrQLenPdf::62                      0                       # What write queue length does an incoming req see
system.mem_ctrls.wrQLenPdf::63                      0                       # What write queue length does an incoming req see
system.mem_ctrls.bytesPerActivate::samples       750814                       # Bytes accessed per row activation
system.mem_ctrls.bytesPerActivate::mean    126.196901                       # Bytes accessed per row activation
system.mem_ctrls.bytesPerActivate::gmean    91.229484                       # Bytes accessed per row activation
system.mem_ctrls.bytesPerActivate::stdev   161.584823                       # Bytes accessed per row activation
system.mem_ctrls.bytesPerActivate::0-127       531861     70.84%     70.84% # Bytes accessed per row activation
system.mem_ctrls.bytesPerActivate::128-255       140183     18.67%     89.51% # Bytes accessed per row activation
system.mem_ctrls.bytesPerActivate::256-383        29909      3.98%     93.49% # Bytes accessed per row activation
system.mem_ctrls.bytesPerActivate::384-511        12235      1.63%     95.12% # Bytes accessed per row activation
system.mem_ctrls.bytesPerActivate::512-639        16329      2.17%     97.30% # Bytes accessed per row activation
system.mem_ctrls.bytesPerActivate::640-767         5065      0.67%     97.97% # Bytes accessed per row activation
system.mem_ctrls.bytesPerActivate::768-895         1554      0.21%     98.18% # Bytes accessed per row activation
system.mem_ctrls.bytesPerActivate::896-1023         1159      0.15%     98.33% # Bytes accessed per row activation
system.mem_ctrls.bytesPerActivate::1024-1151        12519      1.67%    100.00% # Bytes accessed per row activation
system.mem_ctrls.bytesPerActivate::total       750814                       # Bytes accessed per row activation
system.mem_ctrls.rdPerTurnAround::samples        28776                       # Reads before turning the bus around for writes
system.mem_ctrls.rdPerTurnAround::mean      33.992772                       # Reads before turning the bus around for writes
system.mem_ctrls.rdPerTurnAround::gmean     26.523127                       # Reads before turning the bus around for writes
system.mem_ctrls.rdPerTurnAround::stdev    304.938843                       # Reads before turning the bus around for writes
system.mem_ctrls.rdPerTurnAround::0-2047        28761     99.95%     99.95% # Reads before turning the bus around for writes
system.mem_ctrls.rdPerTurnAround::2048-4095            7      0.02%     99.97% # Reads before turning the bus around for writes
system.mem_ctrls.rdPerTurnAround::4096-6143            4      0.01%     99.99% # Reads before turning the bus around for writes
system.mem_ctrls.rdPerTurnAround::8192-10239            2      0.01%     99.99% # Reads before turning the bus around for writes
system.mem_ctrls.rdPerTurnAround::10240-12287            1      0.00%    100.00% # Reads before turning the bus around for writes
system.mem_ctrls.rdPerTurnAround::47104-49151            1      0.00%    100.00% # Reads before turning the bus around for writes
system.mem_ctrls.rdPerTurnAround::total         28776                       # Reads before turning the bus around for writes
system.mem_ctrls.wrPerTurnAround::samples        28776                       # Writes before turning the bus around for reads
system.mem_ctrls.wrPerTurnAround::mean      17.175563                       # Writes before turning the bus around for reads
system.mem_ctrls.wrPerTurnAround::gmean     17.148157                       # Writes before turning the bus around for reads
system.mem_ctrls.wrPerTurnAround::stdev      0.963433                       # Writes before turning the bus around for reads
system.mem_ctrls.wrPerTurnAround::16            11254     39.11%     39.11% # Writes before turning the bus around for reads
system.mem_ctrls.wrPerTurnAround::17             1234      4.29%     43.40% # Writes before turning the bus around for reads
system.mem_ctrls.wrPerTurnAround::18            16270     56.54%     99.94% # Writes before turning the bus around for reads
system.mem_ctrls.wrPerTurnAround::19               18      0.06%    100.00% # Writes before turning the bus around for reads
system.mem_ctrls.wrPerTurnAround::total         28776                       # Writes before turning the bus around for reads
system.mem_ctrls.totQLat                  25997854500                       # Total ticks spent queuing
system.mem_ctrls.totMemAccLat             44489704500                       # Total ticks spent from burst creation until serviced by the DRAM
system.mem_ctrls.totBusLat                 4931160000                       # Total ticks spent in databus transfers
system.mem_ctrls.avgQLat                     26360.79                       # Average queueing delay per DRAM burst
system.mem_ctrls.avgBusLat                    5000.00                       # Average bus latency per DRAM burst
system.mem_ctrls.avgMemAccLat                45110.79                       # Average memory access latency per DRAM burst
system.mem_ctrls.avgRdBW                        57.38                       # Average DRAM read bandwidth in MiByte/s
system.mem_ctrls.avgWrBW                        28.76                       # Average achieved write bandwidth in MiByte/s
system.mem_ctrls.avgRdBWSys                     28.70                       # Average system read bandwidth in MiByte/s
system.mem_ctrls.avgWrBWSys                     16.28                       # Average system write bandwidth in MiByte/s
system.mem_ctrls.peakBW                      12800.00                       # Theoretical peak bandwidth in MiByte/s
system.mem_ctrls.busUtil                         0.67                       # Data bus utilization in percentage
system.mem_ctrls.busUtilRead                     0.45                       # Data bus utilization in percentage for reads
system.mem_ctrls.busUtilWrite                    0.22                       # Data bus utilization in percentage for writes
system.mem_ctrls.avgRdQLen                       1.00                       # Average read queue length when enqueuing
system.mem_ctrls.avgWrQLen                      26.28                       # Average write queue length when enqueuing
system.mem_ctrls.readRowHits                   530283                       # Number of row buffer hits during reads
system.mem_ctrls.writeRowHits                  199378                       # Number of row buffer hits during writes
system.mem_ctrls.readRowHitRate                 53.77                       # Row buffer hit rate for reads
system.mem_ctrls.writeRowHitRate                40.34                       # Row buffer hit rate for writes
system.mem_ctrls.avgGap                     711316.97                       # Average gap between requests
system.mem_ctrls.pageHitRate                    49.28                       # Row buffer hit rate, read and write combined
system.mem_ctrls_0.actEnergy               2652938400                       # Energy for activate commands per rank (pJ)
system.mem_ctrls_0.preEnergy               1410066405                       # Energy for precharge commands per rank (pJ)
system.mem_ctrls_0.readEnergy              3510152520                       # Energy for read commands per rank (pJ)
system.mem_ctrls_0.writeEnergy             1267593480                       # Energy for write commands per rank (pJ)
system.mem_ctrls_0.refreshEnergy         42649254960.000008                       # Energy for refresh commands per rank (pJ)
system.mem_ctrls_0.actBackEnergy          24908555970                       # Energy for active background per rank (pJ)
system.mem_ctrls_0.preBackEnergy           1598482560                       # Energy for precharge background per rank (pJ)
system.mem_ctrls_0.actPowerDownEnergy    144835304250                       # Energy for active power-down per rank (pJ)
system.mem_ctrls_0.prePowerDownEnergy     43300302240                       # Energy for precharge power-down per rank (pJ)
system.mem_ctrls_0.selfRefreshEnergy     150490348035                       # Energy for self refresh per rank (pJ)
system.mem_ctrls_0.totalEnergy           416632586130                       # Total energy per rank (pJ)
system.mem_ctrls_0.averagePower            378.764189                       # Core power per rank (mW)
system.mem_ctrls_0.totalIdleTime         1041167016500                       # Total Idle time Per DRAM Rank
system.mem_ctrls_0.memoryStateTime::IDLE   2254122250                       # Time in different power states
system.mem_ctrls_0.memoryStateTime::REF   18084322000                       # Time in different power states
system.mem_ctrls_0.memoryStateTime::SREF 610788267500                       # Time in different power states
system.mem_ctrls_0.memoryStateTime::PRE_PDN 112761546250                       # Time in different power states
system.mem_ctrls_0.memoryStateTime::ACT   38470688750                       # Time in different power states
system.mem_ctrls_0.memoryStateTime::ACT_PDN 317619873750                       # Time in different power states
system.mem_ctrls_1.actEnergy               2707880700                       # Energy for activate commands per rank (pJ)
system.mem_ctrls_1.preEnergy               1439272725                       # Energy for precharge commands per rank (pJ)
system.mem_ctrls_1.readEnergy              3531543960                       # Energy for read commands per rank (pJ)
system.mem_ctrls_1.writeEnergy             1312360200                       # Energy for write commands per rank (pJ)
system.mem_ctrls_1.refreshEnergy         42496209600.000008                       # Energy for refresh commands per rank (pJ)
system.mem_ctrls_1.actBackEnergy          25158654870                       # Energy for active background per rank (pJ)
system.mem_ctrls_1.preBackEnergy           1595124000                       # Energy for precharge background per rank (pJ)
system.mem_ctrls_1.actPowerDownEnergy    143806726710                       # Energy for active power-down per rank (pJ)
system.mem_ctrls_1.prePowerDownEnergy     43326966720                       # Energy for precharge power-down per rank (pJ)
system.mem_ctrls_1.selfRefreshEnergy     150862691865                       # Energy for self refresh per rank (pJ)
system.mem_ctrls_1.totalEnergy           416248080150                       # Total energy per rank (pJ)
system.mem_ctrls_1.averagePower            378.414629                       # Core power per rank (mW)
system.mem_ctrls_1.totalIdleTime         1040590064750                       # Total Idle time Per DRAM Rank
system.mem_ctrls_1.memoryStateTime::IDLE   2237285500                       # Time in different power states
system.mem_ctrls_1.memoryStateTime::REF   18019456000                       # Time in different power states
system.mem_ctrls_1.memoryStateTime::SREF 612432481000                       # Time in different power states
system.mem_ctrls_1.memoryStateTime::PRE_PDN 112832414750                       # Time in different power states
system.mem_ctrls_1.memoryStateTime::ACT   39093799250                       # Time in different power states
system.mem_ctrls_1.memoryStateTime::ACT_PDN 315363384000                       # Time in different power states
system.pwrStateResidencyTicks::UNDEFINED 1099978820500                       # Cumulative time (in ticks) in various power states
system.cpu_voltage_domain.voltage                   1                       # Voltage in Volts
system.cpu_clk_domain.clock                       500                       # Clock period in ticks
system.cpu.dtb.walker.pwrStateResidencyTicks::UNDEFINED 1099978820500                       # Cumulative time (in ticks) in various power states
system.cpu.apic_clk_domain.clock                 8000                       # Clock period in ticks
system.cpu.interrupts.pwrStateResidencyTicks::UNDEFINED 1099978820500                       # Cumulative time (in ticks) in various power states
system.cpu.itb.walker.pwrStateResidencyTicks::UNDEFINED 1099978820500                       # Cumulative time (in ticks) in various power states
system.cpu.workload.num_syscalls                   86                       # Number of system calls
system.cpu.pwrStateResidencyTicks::ON    1099978820500                       # Cumulative time (in ticks) in various power states
system.cpu.numCycles                       2199957641                       # number of cpu cycles simulated
system.cpu.numWorkItemsStarted                      0                       # number of work items this cpu started
system.cpu.numWorkItemsCompleted                    0                       # number of work items this cpu completed
system.cpu.committedInsts                   500000001                       # Number of instructions committed
system.cpu.committedOps                     730450447                       # Number of ops (including micro ops) committed
system.cpu.num_int_alu_accesses             729688906                       # Number of integer alu accesses
system.cpu.num_fp_alu_accesses                    663                       # Number of float alu accesses
system.cpu.num_func_calls                     1453961                       # number of times a function call or return occured
system.cpu.num_conditional_control_insts     31770496                       # number of instructions that are conditional controls
system.cpu.num_int_insts                    729688906                       # number of integer instructions
system.cpu.num_fp_insts                           663                       # number of float instructions
system.cpu.num_int_register_reads          1698743411                       # number of times the integer registers were read
system.cpu.num_int_register_writes          621892950                       # number of times the integer registers were written
system.cpu.num_fp_register_reads                 1009                       # number of times the floating registers were read
system.cpu.num_fp_register_writes                 429                       # number of times the floating registers were written
system.cpu.num_cc_register_reads            180840559                       # number of times the CC registers were read
system.cpu.num_cc_register_writes           276245121                       # number of times the CC registers were written
system.cpu.num_mem_refs                     295985461                       # number of memory refs
system.cpu.num_load_insts                   225946751                       # Number of load instructions
system.cpu.num_store_insts                   70038710                       # Number of store instructions
system.cpu.num_idle_cycles                          0                       # Number of idle cycles
system.cpu.num_busy_cycles                 2199957641                       # Number of busy cycles
system.cpu.not_idle_fraction                        1                       # Percentage of non-idle cycles
system.cpu.idle_fraction                            0                       # Percentage of idle cycles
system.cpu.Branches                          37843296                       # Number of branches fetched
system.cpu.op_class::No_OpClass                 94740      0.01%      0.01% # Class of executed instruction
system.cpu.op_class::IntAlu                 434349067     59.46%     59.48% # Class of executed instruction
system.cpu.op_class::IntMult                    20662      0.00%     59.48% # Class of executed instruction
system.cpu.op_class::IntDiv                       119      0.00%     59.48% # Class of executed instruction
system.cpu.op_class::FloatAdd                     398      0.00%     59.48% # Class of executed instruction
system.cpu.op_class::FloatCmp                       0      0.00%     59.48% # Class of executed instruction
system.cpu.op_class::FloatCvt                       0      0.00%     59.48% # Class of executed instruction
system.cpu.op_class::FloatMult                      0      0.00%     59.48% # Class of executed instruction
system.cpu.op_class::FloatDiv                       0      0.00%     59.48% # Class of executed instruction
system.cpu.op_class::FloatSqrt                      0      0.00%     59.48% # Class of executed instruction
system.cpu.op_class::SimdAdd                        0      0.00%     59.48% # Class of executed instruction
system.cpu.op_class::SimdAddAcc                     0      0.00%     59.48% # Class of executed instruction
system.cpu.op_class::SimdAlu                        0      0.00%     59.48% # Class of executed instruction
system.cpu.op_class::SimdCmp                        0      0.00%     59.48% # Class of executed instruction
system.cpu.op_class::SimdCvt                        0      0.00%     59.48% # Class of executed instruction
system.cpu.op_class::SimdMisc                       0      0.00%     59.48% # Class of executed instruction
system.cpu.op_class::SimdMult                       0      0.00%     59.48% # Class of executed instruction
system.cpu.op_class::SimdMultAcc                    0      0.00%     59.48% # Class of executed instruction
system.cpu.op_class::SimdShift                      0      0.00%     59.48% # Class of executed instruction
system.cpu.op_class::SimdShiftAcc                   0      0.00%     59.48% # Class of executed instruction
system.cpu.op_class::SimdSqrt                       0      0.00%     59.48% # Class of executed instruction
system.cpu.op_class::SimdFloatAdd                   0      0.00%     59.48% # Class of executed instruction
system.cpu.op_class::SimdFloatAlu                   0      0.00%     59.48% # Class of executed instruction
system.cpu.op_class::SimdFloatCmp                   0      0.00%     59.48% # Class of executed instruction
system.cpu.op_class::SimdFloatCvt                   0      0.00%     59.48% # Class of executed instruction
system.cpu.op_class::SimdFloatDiv                   0      0.00%     59.48% # Class of executed instruction
system.cpu.op_class::SimdFloatMisc                  0      0.00%     59.48% # Class of executed instruction
system.cpu.op_class::SimdFloatMult                  0      0.00%     59.48% # Class of executed instruction
system.cpu.op_class::SimdFloatMultAcc               0      0.00%     59.48% # Class of executed instruction
system.cpu.op_class::SimdFloatSqrt                  0      0.00%     59.48% # Class of executed instruction
system.cpu.op_class::MemRead                225946751     30.93%     90.41% # Class of executed instruction
system.cpu.op_class::MemWrite                70038710      9.59%    100.00% # Class of executed instruction
system.cpu.op_class::IprAccess                      0      0.00%    100.00% # Class of executed instruction
system.cpu.op_class::InstPrefetch                   0      0.00%    100.00% # Class of executed instruction
system.cpu.op_class::total                  730450447                       # Class of executed instruction
system.cpu.dcache.tags.pwrStateResidencyTicks::UNDEFINED 1099978820500                       # Cumulative time (in ticks) in various power states
system.cpu.dcache.tags.replacements           2797177                       # number of replacements
system.cpu.dcache.tags.tagsinuse          2042.160796                       # Cycle average of tags in use
system.cpu.dcache.tags.total_refs           293186249                       # Total number of references to valid blocks.
system.cpu.dcache.tags.sampled_refs           2799225                       # Sample count of references to valid blocks.
system.cpu.dcache.tags.avg_refs            104.738365                       # Average number of references to valid blocks.
system.cpu.dcache.tags.warmup_cycle        3853255500                       # Cycle when the warmup percentage was hit.
system.cpu.dcache.tags.occ_blocks::cpu.data  2042.160796                       # Average occupied blocks per requestor
system.cpu.dcache.tags.occ_percent::cpu.data     0.997149                       # Average percentage of cache occupancy
system.cpu.dcache.tags.occ_percent::total     0.997149                       # Average percentage of cache occupancy
system.cpu.dcache.tags.occ_task_id_blocks::1024         2048                       # Occupied blocks per task id
system.cpu.dcache.tags.age_task_id_blocks_1024::0            1                       # Occupied blocks per task id
system.cpu.dcache.tags.age_task_id_blocks_1024::1            3                       # Occupied blocks per task id
system.cpu.dcache.tags.age_task_id_blocks_1024::2           32                       # Occupied blocks per task id
system.cpu.dcache.tags.age_task_id_blocks_1024::3         1823                       # Occupied blocks per task id
system.cpu.dcache.tags.age_task_id_blocks_1024::4          189                       # Occupied blocks per task id
system.cpu.dcache.tags.occ_task_id_percent::1024            1                       # Percentage of cache occupancy per task id
system.cpu.dcache.tags.tag_accesses         594770173                       # Number of tag accesses
system.cpu.dcache.tags.data_accesses        594770173                       # Number of data accesses
system.cpu.dcache.pwrStateResidencyTicks::UNDEFINED 1099978820500                       # Cumulative time (in ticks) in various power states
system.cpu.dcache.ReadReq_hits::cpu.data    223903487                       # number of ReadReq hits
system.cpu.dcache.ReadReq_hits::total       223903487                       # number of ReadReq hits
system.cpu.dcache.WriteReq_hits::cpu.data     69282762                       # number of WriteReq hits
system.cpu.dcache.WriteReq_hits::total       69282762                       # number of WriteReq hits
system.cpu.dcache.demand_hits::cpu.data     293186249                       # number of demand (read+write) hits
system.cpu.dcache.demand_hits::total        293186249                       # number of demand (read+write) hits
system.cpu.dcache.overall_hits::cpu.data    293186249                       # number of overall hits
system.cpu.dcache.overall_hits::total       293186249                       # number of overall hits
system.cpu.dcache.ReadReq_misses::cpu.data      2026891                       # number of ReadReq misses
system.cpu.dcache.ReadReq_misses::total       2026891                       # number of ReadReq misses
system.cpu.dcache.WriteReq_misses::cpu.data       755950                       # number of WriteReq misses
system.cpu.dcache.WriteReq_misses::total       755950                       # number of WriteReq misses
system.cpu.dcache.SoftPFReq_misses::cpu.data        16384                       # number of SoftPFReq misses
system.cpu.dcache.SoftPFReq_misses::total        16384                       # number of SoftPFReq misses
system.cpu.dcache.demand_misses::cpu.data      2782841                       # number of demand (read+write) misses
system.cpu.dcache.demand_misses::total        2782841                       # number of demand (read+write) misses
system.cpu.dcache.overall_misses::cpu.data      2799225                       # number of overall misses
system.cpu.dcache.overall_misses::total       2799225                       # number of overall misses
system.cpu.dcache.ReadReq_miss_latency::cpu.data  69926229000                       # number of ReadReq miss cycles
system.cpu.dcache.ReadReq_miss_latency::total  69926229000                       # number of ReadReq miss cycles
system.cpu.dcache.WriteReq_miss_latency::cpu.data  49285800000                       # number of WriteReq miss cycles
system.cpu.dcache.WriteReq_miss_latency::total  49285800000                       # number of WriteReq miss cycles
system.cpu.dcache.demand_miss_latency::cpu.data 119212029000                       # number of demand (read+write) miss cycles
system.cpu.dcache.demand_miss_latency::total 119212029000                       # number of demand (read+write) miss cycles
system.cpu.dcache.overall_miss_latency::cpu.data 119212029000                       # number of overall miss cycles
system.cpu.dcache.overall_miss_latency::total 119212029000                       # number of overall miss cycles
system.cpu.dcache.ReadReq_accesses::cpu.data    225930378                       # number of ReadReq accesses(hits+misses)
system.cpu.dcache.ReadReq_accesses::total    225930378                       # number of ReadReq accesses(hits+misses)
system.cpu.dcache.WriteReq_accesses::cpu.data     70038712                       # number of WriteReq accesses(hits+misses)
system.cpu.dcache.WriteReq_accesses::total     70038712                       # number of WriteReq accesses(hits+misses)
system.cpu.dcache.SoftPFReq_accesses::cpu.data        16384                       # number of SoftPFReq accesses(hits+misses)
system.cpu.dcache.SoftPFReq_accesses::total        16384                       # number of SoftPFReq accesses(hits+misses)
system.cpu.dcache.demand_accesses::cpu.data    295969090                       # number of demand (read+write) accesses
system.cpu.dcache.demand_accesses::total    295969090                       # number of demand (read+write) accesses
system.cpu.dcache.overall_accesses::cpu.data    295985474                       # number of overall (read+write) accesses
system.cpu.dcache.overall_accesses::total    295985474                       # number of overall (read+write) accesses
system.cpu.dcache.ReadReq_miss_rate::cpu.data     0.008971                       # miss rate for ReadReq accesses
system.cpu.dcache.ReadReq_miss_rate::total     0.008971                       # miss rate for ReadReq accesses
system.cpu.dcache.WriteReq_miss_rate::cpu.data     0.010793                       # miss rate for WriteReq accesses
system.cpu.dcache.WriteReq_miss_rate::total     0.010793                       # miss rate for WriteReq accesses
system.cpu.dcache.SoftPFReq_miss_rate::cpu.data            1                       # miss rate for SoftPFReq accesses
system.cpu.dcache.SoftPFReq_miss_rate::total            1                       # miss rate for SoftPFReq accesses
system.cpu.dcache.demand_miss_rate::cpu.data     0.009402                       # miss rate for demand accesses
system.cpu.dcache.demand_miss_rate::total     0.009402                       # miss rate for demand accesses
system.cpu.dcache.overall_miss_rate::cpu.data     0.009457                       # miss rate for overall accesses
system.cpu.dcache.overall_miss_rate::total     0.009457                       # miss rate for overall accesses
system.cpu.dcache.ReadReq_avg_miss_latency::cpu.data 34499.254770                       # average ReadReq miss latency
system.cpu.dcache.ReadReq_avg_miss_latency::total 34499.254770                       # average ReadReq miss latency
system.cpu.dcache.WriteReq_avg_miss_latency::cpu.data 65197.169125                       # average WriteReq miss latency
system.cpu.dcache.WriteReq_avg_miss_latency::total 65197.169125                       # average WriteReq miss latency
system.cpu.dcache.demand_avg_miss_latency::cpu.data 42838.246598                       # average overall miss latency
system.cpu.dcache.demand_avg_miss_latency::total 42838.246598                       # average overall miss latency
system.cpu.dcache.overall_avg_miss_latency::cpu.data 42587.512258                       # average overall miss latency
system.cpu.dcache.overall_avg_miss_latency::total 42587.512258                       # average overall miss latency
system.cpu.dcache.blocked_cycles::no_mshrs         2880                       # number of cycles access was blocked
system.cpu.dcache.blocked_cycles::no_targets            0                       # number of cycles access was blocked
system.cpu.dcache.blocked::no_mshrs                14                       # number of cycles access was blocked
system.cpu.dcache.blocked::no_targets               0                       # number of cycles access was blocked
system.cpu.dcache.avg_blocked_cycles::no_mshrs   205.714286                       # average number of cycles each access was blocked
system.cpu.dcache.avg_blocked_cycles::no_targets          nan                       # average number of cycles each access was blocked
system.cpu.dcache.writebacks::writebacks      1295493                       # number of writebacks
system.cpu.dcache.writebacks::total           1295493                       # number of writebacks
system.cpu.dcache.ReadReq_mshr_misses::cpu.data      2026891                       # number of ReadReq MSHR misses
system.cpu.dcache.ReadReq_mshr_misses::total      2026891                       # number of ReadReq MSHR misses
system.cpu.dcache.WriteReq_mshr_misses::cpu.data       755950                       # number of WriteReq MSHR misses
system.cpu.dcache.WriteReq_mshr_misses::total       755950                       # number of WriteReq MSHR misses
system.cpu.dcache.SoftPFReq_mshr_misses::cpu.data        16384                       # number of SoftPFReq MSHR misses
system.cpu.dcache.SoftPFReq_mshr_misses::total        16384                       # number of SoftPFReq MSHR misses
system.cpu.dcache.demand_mshr_misses::cpu.data      2782841                       # number of demand (read+write) MSHR misses
system.cpu.dcache.demand_mshr_misses::total      2782841                       # number of demand (read+write) MSHR misses
system.cpu.dcache.overall_mshr_misses::cpu.data      2799225                       # number of overall MSHR misses
system.cpu.dcache.overall_mshr_misses::total      2799225                       # number of overall MSHR misses
system.cpu.dcache.ReadReq_mshr_miss_latency::cpu.data  67899338000                       # number of ReadReq MSHR miss cycles
system.cpu.dcache.ReadReq_mshr_miss_latency::total  67899338000                       # number of ReadReq MSHR miss cycles
system.cpu.dcache.WriteReq_mshr_miss_latency::cpu.data  48529850000                       # number of WriteReq MSHR miss cycles
system.cpu.dcache.WriteReq_mshr_miss_latency::total  48529850000                       # number of WriteReq MSHR miss cycles
system.cpu.dcache.SoftPFReq_mshr_miss_latency::cpu.data   1361299000                       # number of SoftPFReq MSHR miss cycles
system.cpu.dcache.SoftPFReq_mshr_miss_latency::total   1361299000                       # number of SoftPFReq MSHR miss cycles
system.cpu.dcache.demand_mshr_miss_latency::cpu.data 116429188000                       # number of demand (read+write) MSHR miss cycles
system.cpu.dcache.demand_mshr_miss_latency::total 116429188000                       # number of demand (read+write) MSHR miss cycles
system.cpu.dcache.overall_mshr_miss_latency::cpu.data 117790487000                       # number of overall MSHR miss cycles
system.cpu.dcache.overall_mshr_miss_latency::total 117790487000                       # number of overall MSHR miss cycles
system.cpu.dcache.ReadReq_mshr_miss_rate::cpu.data     0.008971                       # mshr miss rate for ReadReq accesses
system.cpu.dcache.ReadReq_mshr_miss_rate::total     0.008971                       # mshr miss rate for ReadReq accesses
system.cpu.dcache.WriteReq_mshr_miss_rate::cpu.data     0.010793                       # mshr miss rate for WriteReq accesses
system.cpu.dcache.WriteReq_mshr_miss_rate::total     0.010793                       # mshr miss rate for WriteReq accesses
system.cpu.dcache.SoftPFReq_mshr_miss_rate::cpu.data            1                       # mshr miss rate for SoftPFReq accesses
system.cpu.dcache.SoftPFReq_mshr_miss_rate::total            1                       # mshr miss rate for SoftPFReq accesses
system.cpu.dcache.demand_mshr_miss_rate::cpu.data     0.009402                       # mshr miss rate for demand accesses
system.cpu.dcache.demand_mshr_miss_rate::total     0.009402                       # mshr miss rate for demand accesses
system.cpu.dcache.overall_mshr_miss_rate::cpu.data     0.009457                       # mshr miss rate for overall accesses
system.cpu.dcache.overall_mshr_miss_rate::total     0.009457                       # mshr miss rate for overall accesses
system.cpu.dcache.ReadReq_avg_mshr_miss_latency::cpu.data 33499.254770                       # average ReadReq mshr miss latency
system.cpu.dcache.ReadReq_avg_mshr_miss_latency::total 33499.254770                       # average ReadReq mshr miss latency
system.cpu.dcache.WriteReq_avg_mshr_miss_latency::cpu.data 64197.169125                       # average WriteReq mshr miss latency
system.cpu.dcache.WriteReq_avg_mshr_miss_latency::total 64197.169125                       # average WriteReq mshr miss latency
system.cpu.dcache.SoftPFReq_avg_mshr_miss_latency::cpu.data 83087.097168                       # average SoftPFReq mshr miss latency
system.cpu.dcache.SoftPFReq_avg_mshr_miss_latency::total 83087.097168                       # average SoftPFReq mshr miss latency
system.cpu.dcache.demand_avg_mshr_miss_latency::cpu.data 41838.246598                       # average overall mshr miss latency
system.cpu.dcache.demand_avg_mshr_miss_latency::total 41838.246598                       # average overall mshr miss latency
system.cpu.dcache.overall_avg_mshr_miss_latency::cpu.data 42079.678125                       # average overall mshr miss latency
system.cpu.dcache.overall_avg_mshr_miss_latency::total 42079.678125                       # average overall mshr miss latency
system.cpu.dtb_walker_cache.tags.pwrStateResidencyTicks::UNDEFINED 1099978820500                       # Cumulative time (in ticks) in various power states
system.cpu.dtb_walker_cache.tags.replacements            0                       # number of replacements
system.cpu.dtb_walker_cache.tags.tagsinuse            0                       # Cycle average of tags in use
system.cpu.dtb_walker_cache.tags.total_refs            0                       # Total number of references to valid blocks.
system.cpu.dtb_walker_cache.tags.sampled_refs            0                       # Sample count of references to valid blocks.
system.cpu.dtb_walker_cache.tags.avg_refs          nan                       # Average number of references to valid blocks.
system.cpu.dtb_walker_cache.tags.warmup_cycle            0                       # Cycle when the warmup percentage was hit.
system.cpu.dtb_walker_cache.tags.tag_accesses            0                       # Number of tag accesses
system.cpu.dtb_walker_cache.tags.data_accesses            0                       # Number of data accesses
system.cpu.dtb_walker_cache.pwrStateResidencyTicks::UNDEFINED 1099978820500                       # Cumulative time (in ticks) in various power states
system.cpu.dtb_walker_cache.blocked_cycles::no_mshrs            0                       # number of cycles access was blocked
system.cpu.dtb_walker_cache.blocked_cycles::no_targets            0                       # number of cycles access was blocked
system.cpu.dtb_walker_cache.blocked::no_mshrs            0                       # number of cycles access was blocked
system.cpu.dtb_walker_cache.blocked::no_targets            0                       # number of cycles access was blocked
system.cpu.dtb_walker_cache.avg_blocked_cycles::no_mshrs          nan                       # average number of cycles each access was blocked
system.cpu.dtb_walker_cache.avg_blocked_cycles::no_targets          nan                       # average number of cycles each access was blocked
system.cpu.icache.tags.pwrStateResidencyTicks::UNDEFINED 1099978820500                       # Cumulative time (in ticks) in various power states
system.cpu.icache.tags.replacements               858                       # number of replacements
system.cpu.icache.tags.tagsinuse           859.765818                       # Cycle average of tags in use
system.cpu.icache.tags.total_refs           687396000                       # Total number of references to valid blocks.
system.cpu.icache.tags.sampled_refs              1862                       # Sample count of references to valid blocks.
system.cpu.icache.tags.avg_refs          369170.784103                       # Average number of references to valid blocks.
system.cpu.icache.tags.warmup_cycle                 0                       # Cycle when the warmup percentage was hit.
system.cpu.icache.tags.occ_blocks::cpu.inst   859.765818                       # Average occupied blocks per requestor
system.cpu.icache.tags.occ_percent::cpu.inst     0.839615                       # Average percentage of cache occupancy
system.cpu.icache.tags.occ_percent::total     0.839615                       # Average percentage of cache occupancy
system.cpu.icache.tags.occ_task_id_blocks::1024         1004                       # Occupied blocks per task id
system.cpu.icache.tags.age_task_id_blocks_1024::1           14                       # Occupied blocks per task id
system.cpu.icache.tags.age_task_id_blocks_1024::3           50                       # Occupied blocks per task id
system.cpu.icache.tags.age_task_id_blocks_1024::4          940                       # Occupied blocks per task id
system.cpu.icache.tags.occ_task_id_percent::1024     0.980469                       # Percentage of cache occupancy per task id
system.cpu.icache.tags.tag_accesses        1374797586                       # Number of tag accesses
system.cpu.icache.tags.data_accesses       1374797586                       # Number of data accesses
system.cpu.icache.pwrStateResidencyTicks::UNDEFINED 1099978820500                       # Cumulative time (in ticks) in various power states
system.cpu.icache.ReadReq_hits::cpu.inst    687396000                       # number of ReadReq hits
system.cpu.icache.ReadReq_hits::total       687396000                       # number of ReadReq hits
system.cpu.icache.demand_hits::cpu.inst     687396000                       # number of demand (read+write) hits
system.cpu.icache.demand_hits::total        687396000                       # number of demand (read+write) hits
system.cpu.icache.overall_hits::cpu.inst    687396000                       # number of overall hits
system.cpu.icache.overall_hits::total       687396000                       # number of overall hits
system.cpu.icache.ReadReq_misses::cpu.inst         1862                       # number of ReadReq misses
system.cpu.icache.ReadReq_misses::total          1862                       # number of ReadReq misses
system.cpu.icache.demand_misses::cpu.inst         1862                       # number of demand (read+write) misses
system.cpu.icache.demand_misses::total           1862                       # number of demand (read+write) misses
system.cpu.icache.overall_misses::cpu.inst         1862                       # number of overall misses
system.cpu.icache.overall_misses::total          1862                       # number of overall misses
system.cpu.icache.ReadReq_miss_latency::cpu.inst    166751000                       # number of ReadReq miss cycles
system.cpu.icache.ReadReq_miss_latency::total    166751000                       # number of ReadReq miss cycles
system.cpu.icache.demand_miss_latency::cpu.inst    166751000                       # number of demand (read+write) miss cycles
system.cpu.icache.demand_miss_latency::total    166751000                       # number of demand (read+write) miss cycles
system.cpu.icache.overall_miss_latency::cpu.inst    166751000                       # number of overall miss cycles
system.cpu.icache.overall_miss_latency::total    166751000                       # number of overall miss cycles
system.cpu.icache.ReadReq_accesses::cpu.inst    687397862                       # number of ReadReq accesses(hits+misses)
system.cpu.icache.ReadReq_accesses::total    687397862                       # number of ReadReq accesses(hits+misses)
system.cpu.icache.demand_accesses::cpu.inst    687397862                       # number of demand (read+write) accesses
system.cpu.icache.demand_accesses::total    687397862                       # number of demand (read+write) accesses
system.cpu.icache.overall_accesses::cpu.inst    687397862                       # number of overall (read+write) accesses
system.cpu.icache.overall_accesses::total    687397862                       # number of overall (read+write) accesses
system.cpu.icache.ReadReq_miss_rate::cpu.inst     0.000003                       # miss rate for ReadReq accesses
system.cpu.icache.ReadReq_miss_rate::total     0.000003                       # miss rate for ReadReq accesses
system.cpu.icache.demand_miss_rate::cpu.inst     0.000003                       # miss rate for demand accesses
system.cpu.icache.demand_miss_rate::total     0.000003                       # miss rate for demand accesses
system.cpu.icache.overall_miss_rate::cpu.inst     0.000003                       # miss rate for overall accesses
system.cpu.icache.overall_miss_rate::total     0.000003                       # miss rate for overall accesses
system.cpu.icache.ReadReq_avg_miss_latency::cpu.inst 89554.779807                       # average ReadReq miss latency
system.cpu.icache.ReadReq_avg_miss_latency::total 89554.779807                       # average ReadReq miss latency
system.cpu.icache.demand_avg_miss_latency::cpu.inst 89554.779807                       # average overall miss latency
system.cpu.icache.demand_avg_miss_latency::total 89554.779807                       # average overall miss latency
system.cpu.icache.overall_avg_miss_latency::cpu.inst 89554.779807                       # average overall miss latency
system.cpu.icache.overall_avg_miss_latency::total 89554.779807                       # average overall miss latency
system.cpu.icache.blocked_cycles::no_mshrs            0                       # number of cycles access was blocked
system.cpu.icache.blocked_cycles::no_targets            0                       # number of cycles access was blocked
system.cpu.icache.blocked::no_mshrs                 0                       # number of cycles access was blocked
system.cpu.icache.blocked::no_targets               0                       # number of cycles access was blocked
system.cpu.icache.avg_blocked_cycles::no_mshrs          nan                       # average number of cycles each access was blocked
system.cpu.icache.avg_blocked_cycles::no_targets          nan                       # average number of cycles each access was blocked
system.cpu.icache.writebacks::writebacks          858                       # number of writebacks
system.cpu.icache.writebacks::total               858                       # number of writebacks
system.cpu.icache.ReadReq_mshr_misses::cpu.inst         1862                       # number of ReadReq MSHR misses
system.cpu.icache.ReadReq_mshr_misses::total         1862                       # number of ReadReq MSHR misses
system.cpu.icache.demand_mshr_misses::cpu.inst         1862                       # number of demand (read+write) MSHR misses
system.cpu.icache.demand_mshr_misses::total         1862                       # number of demand (read+write) MSHR misses
system.cpu.icache.overall_mshr_misses::cpu.inst         1862                       # number of overall MSHR misses
system.cpu.icache.overall_mshr_misses::total         1862                       # number of overall MSHR misses
system.cpu.icache.ReadReq_mshr_miss_latency::cpu.inst    164889000                       # number of ReadReq MSHR miss cycles
system.cpu.icache.ReadReq_mshr_miss_latency::total    164889000                       # number of ReadReq MSHR miss cycles
system.cpu.icache.demand_mshr_miss_latency::cpu.inst    164889000                       # number of demand (read+write) MSHR miss cycles
system.cpu.icache.demand_mshr_miss_latency::total    164889000                       # number of demand (read+write) MSHR miss cycles
system.cpu.icache.overall_mshr_miss_latency::cpu.inst    164889000                       # number of overall MSHR miss cycles
system.cpu.icache.overall_mshr_miss_latency::total    164889000                       # number of overall MSHR miss cycles
system.cpu.icache.ReadReq_mshr_miss_rate::cpu.inst     0.000003                       # mshr miss rate for ReadReq accesses
system.cpu.icache.ReadReq_mshr_miss_rate::total     0.000003                       # mshr miss rate for ReadReq accesses
system.cpu.icache.demand_mshr_miss_rate::cpu.inst     0.000003                       # mshr miss rate for demand accesses
system.cpu.icache.demand_mshr_miss_rate::total     0.000003                       # mshr miss rate for demand accesses
system.cpu.icache.overall_mshr_miss_rate::cpu.inst     0.000003                       # mshr miss rate for overall accesses
system.cpu.icache.overall_mshr_miss_rate::total     0.000003                       # mshr miss rate for overall accesses
system.cpu.icache.ReadReq_avg_mshr_miss_latency::cpu.inst 88554.779807                       # average ReadReq mshr miss latency
system.cpu.icache.ReadReq_avg_mshr_miss_latency::total 88554.779807                       # average ReadReq mshr miss latency
system.cpu.icache.demand_avg_mshr_miss_latency::cpu.inst 88554.779807                       # average overall mshr miss latency
system.cpu.icache.demand_avg_mshr_miss_latency::total 88554.779807                       # average overall mshr miss latency
system.cpu.icache.overall_avg_mshr_miss_latency::cpu.inst 88554.779807                       # average overall mshr miss latency
system.cpu.icache.overall_avg_mshr_miss_latency::total 88554.779807                       # average overall mshr miss latency
system.cpu.itb_walker_cache.tags.pwrStateResidencyTicks::UNDEFINED 1099978820500                       # Cumulative time (in ticks) in various power states
system.cpu.itb_walker_cache.tags.replacements            0                       # number of replacements
system.cpu.itb_walker_cache.tags.tagsinuse            0                       # Cycle average of tags in use
system.cpu.itb_walker_cache.tags.total_refs            0                       # Total number of references to valid blocks.
system.cpu.itb_walker_cache.tags.sampled_refs            0                       # Sample count of references to valid blocks.
system.cpu.itb_walker_cache.tags.avg_refs          nan                       # Average number of references to valid blocks.
system.cpu.itb_walker_cache.tags.warmup_cycle            0                       # Cycle when the warmup percentage was hit.
system.cpu.itb_walker_cache.tags.tag_accesses            0                       # Number of tag accesses
system.cpu.itb_walker_cache.tags.data_accesses            0                       # Number of data accesses
system.cpu.itb_walker_cache.pwrStateResidencyTicks::UNDEFINED 1099978820500                       # Cumulative time (in ticks) in various power states
system.cpu.itb_walker_cache.blocked_cycles::no_mshrs            0                       # number of cycles access was blocked
system.cpu.itb_walker_cache.blocked_cycles::no_targets            0                       # number of cycles access was blocked
system.cpu.itb_walker_cache.blocked::no_mshrs            0                       # number of cycles access was blocked
system.cpu.itb_walker_cache.blocked::no_targets            0                       # number of cycles access was blocked
system.cpu.itb_walker_cache.avg_blocked_cycles::no_mshrs          nan                       # average number of cycles each access was blocked
system.cpu.itb_walker_cache.avg_blocked_cycles::no_targets          nan                       # average number of cycles each access was blocked
system.l2.tags.pwrStateResidencyTicks::UNDEFINED 1099978820500                       # Cumulative time (in ticks) in various power states
system.l2.tags.replacements                    954877                       # number of replacements
system.l2.tags.tagsinuse                 32638.171355                       # Cycle average of tags in use
system.l2.tags.total_refs                     4611381                       # Total number of references to valid blocks.
system.l2.tags.sampled_refs                    987645                       # Sample count of references to valid blocks.
system.l2.tags.avg_refs                      4.669067                       # Average number of references to valid blocks.
system.l2.tags.warmup_cycle                5518038000                       # Cycle when the warmup percentage was hit.
system.l2.tags.occ_blocks::writebacks       71.660992                       # Average occupied blocks per requestor
system.l2.tags.occ_blocks::cpu.inst         81.417609                       # Average occupied blocks per requestor
system.l2.tags.occ_blocks::cpu.data      32485.092753                       # Average occupied blocks per requestor
system.l2.tags.occ_percent::writebacks       0.002187                       # Average percentage of cache occupancy
system.l2.tags.occ_percent::cpu.inst         0.002485                       # Average percentage of cache occupancy
system.l2.tags.occ_percent::cpu.data         0.991366                       # Average percentage of cache occupancy
system.l2.tags.occ_percent::total            0.996038                       # Average percentage of cache occupancy
system.l2.tags.occ_task_id_blocks::1024         32768                       # Occupied blocks per task id
system.l2.tags.age_task_id_blocks_1024::0            1                       # Occupied blocks per task id
system.l2.tags.age_task_id_blocks_1024::1           26                       # Occupied blocks per task id
system.l2.tags.age_task_id_blocks_1024::2           32                       # Occupied blocks per task id
system.l2.tags.age_task_id_blocks_1024::3          484                       # Occupied blocks per task id
system.l2.tags.age_task_id_blocks_1024::4        32225                       # Occupied blocks per task id
system.l2.tags.occ_task_id_percent::1024            1                       # Percentage of cache occupancy per task id
system.l2.tags.tag_accesses                  23384129                       # Number of tag accesses
system.l2.tags.data_accesses                 23384129                       # Number of data accesses
system.l2.pwrStateResidencyTicks::UNDEFINED 1099978820500                       # Cumulative time (in ticks) in various power states
system.l2.WritebackDirty_hits::writebacks      1295493                       # number of WritebackDirty hits
system.l2.WritebackDirty_hits::total          1295493                       # number of WritebackDirty hits
system.l2.WritebackClean_hits::writebacks          858                       # number of WritebackClean hits
system.l2.WritebackClean_hits::total              858                       # number of WritebackClean hits
system.l2.ReadExReq_hits::cpu.data             281670                       # number of ReadExReq hits
system.l2.ReadExReq_hits::total                281670                       # number of ReadExReq hits
system.l2.ReadCleanReq_hits::cpu.inst              42                       # number of ReadCleanReq hits
system.l2.ReadCleanReq_hits::total                 42                       # number of ReadCleanReq hits
system.l2.ReadSharedReq_hits::cpu.data        1532755                       # number of ReadSharedReq hits
system.l2.ReadSharedReq_hits::total           1532755                       # number of ReadSharedReq hits
system.l2.demand_hits::cpu.inst                    42                       # number of demand (read+write) hits
system.l2.demand_hits::cpu.data               1814425                       # number of demand (read+write) hits
system.l2.demand_hits::total                  1814467                       # number of demand (read+write) hits
system.l2.overall_hits::cpu.inst                   42                       # number of overall hits
system.l2.overall_hits::cpu.data              1814425                       # number of overall hits
system.l2.overall_hits::total                 1814467                       # number of overall hits
system.l2.ReadExReq_misses::cpu.data           474280                       # number of ReadExReq misses
system.l2.ReadExReq_misses::total              474280                       # number of ReadExReq misses
system.l2.ReadCleanReq_misses::cpu.inst          1820                       # number of ReadCleanReq misses
system.l2.ReadCleanReq_misses::total             1820                       # number of ReadCleanReq misses
system.l2.ReadSharedReq_misses::cpu.data       510520                       # number of ReadSharedReq misses
system.l2.ReadSharedReq_misses::total          510520                       # number of ReadSharedReq misses
system.l2.demand_misses::cpu.inst                1820                       # number of demand (read+write) misses
system.l2.demand_misses::cpu.data              984800                       # number of demand (read+write) misses
system.l2.demand_misses::total                 986620                       # number of demand (read+write) misses
system.l2.overall_misses::cpu.inst               1820                       # number of overall misses
system.l2.overall_misses::cpu.data             984800                       # number of overall misses
system.l2.overall_misses::total                986620                       # number of overall misses
system.l2.ReadExReq_miss_latency::cpu.data  44438390000                       # number of ReadExReq miss cycles
system.l2.ReadExReq_miss_latency::total   44438390000                       # number of ReadExReq miss cycles
system.l2.ReadCleanReq_miss_latency::cpu.inst    161654000                       # number of ReadCleanReq miss cycles
system.l2.ReadCleanReq_miss_latency::total    161654000                       # number of ReadCleanReq miss cycles
system.l2.ReadSharedReq_miss_latency::cpu.data  50101797000                       # number of ReadSharedReq miss cycles
system.l2.ReadSharedReq_miss_latency::total  50101797000                       # number of ReadSharedReq miss cycles
system.l2.demand_miss_latency::cpu.inst     161654000                       # number of demand (read+write) miss cycles
system.l2.demand_miss_latency::cpu.data   94540187000                       # number of demand (read+write) miss cycles
system.l2.demand_miss_latency::total      94701841000                       # number of demand (read+write) miss cycles
system.l2.overall_miss_latency::cpu.inst    161654000                       # number of overall miss cycles
system.l2.overall_miss_latency::cpu.data  94540187000                       # number of overall miss cycles
system.l2.overall_miss_latency::total     94701841000                       # number of overall miss cycles
system.l2.WritebackDirty_accesses::writebacks      1295493                       # number of WritebackDirty accesses(hits+misses)
system.l2.WritebackDirty_accesses::total      1295493                       # number of WritebackDirty accesses(hits+misses)
system.l2.WritebackClean_accesses::writebacks          858                       # number of WritebackClean accesses(hits+misses)
system.l2.WritebackClean_accesses::total          858                       # number of WritebackClean accesses(hits+misses)
system.l2.ReadExReq_accesses::cpu.data         755950                       # number of ReadExReq accesses(hits+misses)
system.l2.ReadExReq_accesses::total            755950                       # number of ReadExReq accesses(hits+misses)
system.l2.ReadCleanReq_accesses::cpu.inst         1862                       # number of ReadCleanReq accesses(hits+misses)
system.l2.ReadCleanReq_accesses::total           1862                       # number of ReadCleanReq accesses(hits+misses)
system.l2.ReadSharedReq_accesses::cpu.data      2043275                       # number of ReadSharedReq accesses(hits+misses)
system.l2.ReadSharedReq_accesses::total       2043275                       # number of ReadSharedReq accesses(hits+misses)
system.l2.demand_accesses::cpu.inst              1862                       # number of demand (read+write) accesses
system.l2.demand_accesses::cpu.data           2799225                       # number of demand (read+write) accesses
system.l2.demand_accesses::total              2801087                       # number of demand (read+write) accesses
system.l2.overall_accesses::cpu.inst             1862                       # number of overall (read+write) accesses
system.l2.overall_accesses::cpu.data          2799225                       # number of overall (read+write) accesses
system.l2.overall_accesses::total             2801087                       # number of overall (read+write) accesses
system.l2.ReadExReq_miss_rate::cpu.data      0.627396                       # miss rate for ReadExReq accesses
system.l2.ReadExReq_miss_rate::total         0.627396                       # miss rate for ReadExReq accesses
system.l2.ReadCleanReq_miss_rate::cpu.inst     0.977444                       # miss rate for ReadCleanReq accesses
system.l2.ReadCleanReq_miss_rate::total      0.977444                       # miss rate for ReadCleanReq accesses
system.l2.ReadSharedReq_miss_rate::cpu.data     0.249854                       # miss rate for ReadSharedReq accesses
system.l2.ReadSharedReq_miss_rate::total     0.249854                       # miss rate for ReadSharedReq accesses
system.l2.demand_miss_rate::cpu.inst         0.977444                       # miss rate for demand accesses
system.l2.demand_miss_rate::cpu.data         0.351812                       # miss rate for demand accesses
system.l2.demand_miss_rate::total            0.352228                       # miss rate for demand accesses
system.l2.overall_miss_rate::cpu.inst        0.977444                       # miss rate for overall accesses
system.l2.overall_miss_rate::cpu.data        0.351812                       # miss rate for overall accesses
system.l2.overall_miss_rate::total           0.352228                       # miss rate for overall accesses
system.l2.ReadExReq_avg_miss_latency::cpu.data 93696.529476                       # average ReadExReq miss latency
system.l2.ReadExReq_avg_miss_latency::total 93696.529476                       # average ReadExReq miss latency
system.l2.ReadCleanReq_avg_miss_latency::cpu.inst 88820.879121                       # average ReadCleanReq miss latency
system.l2.ReadCleanReq_avg_miss_latency::total 88820.879121                       # average ReadCleanReq miss latency
system.l2.ReadSharedReq_avg_miss_latency::cpu.data 98138.754603                       # average ReadSharedReq miss latency
system.l2.ReadSharedReq_avg_miss_latency::total 98138.754603                       # average ReadSharedReq miss latency
system.l2.demand_avg_miss_latency::cpu.inst 88820.879121                       # average overall miss latency
system.l2.demand_avg_miss_latency::cpu.data 95999.377539                       # average overall miss latency
system.l2.demand_avg_miss_latency::total 95986.135493                       # average overall miss latency
system.l2.overall_avg_miss_latency::cpu.inst 88820.879121                       # average overall miss latency
system.l2.overall_avg_miss_latency::cpu.data 95999.377539                       # average overall miss latency
system.l2.overall_avg_miss_latency::total 95986.135493                       # average overall miss latency
system.l2.blocked_cycles::no_mshrs                  0                       # number of cycles access was blocked
system.l2.blocked_cycles::no_targets                0                       # number of cycles access was blocked
system.l2.blocked::no_mshrs                         0                       # number of cycles access was blocked
system.l2.blocked::no_targets                       0                       # number of cycles access was blocked
system.l2.avg_blocked_cycles::no_mshrs            nan                       # average number of cycles each access was blocked
system.l2.avg_blocked_cycles::no_targets          nan                       # average number of cycles each access was blocked
system.l2.writebacks::writebacks               559773                       # number of writebacks
system.l2.writebacks::total                    559773                       # number of writebacks
system.l2.CleanEvict_mshr_misses::writebacks           95                       # number of CleanEvict MSHR misses
system.l2.CleanEvict_mshr_misses::total            95                       # number of CleanEvict MSHR misses
system.l2.ReadExReq_mshr_misses::cpu.data       474280                       # number of ReadExReq MSHR misses
system.l2.ReadExReq_mshr_misses::total         474280                       # number of ReadExReq MSHR misses
system.l2.ReadCleanReq_mshr_misses::cpu.inst         1820                       # number of ReadCleanReq MSHR misses
system.l2.ReadCleanReq_mshr_misses::total         1820                       # number of ReadCleanReq MSHR misses
system.l2.ReadSharedReq_mshr_misses::cpu.data       510520                       # number of ReadSharedReq MSHR misses
system.l2.ReadSharedReq_mshr_misses::total       510520                       # number of ReadSharedReq MSHR misses
system.l2.demand_mshr_misses::cpu.inst           1820                       # number of demand (read+write) MSHR misses
system.l2.demand_mshr_misses::cpu.data         984800                       # number of demand (read+write) MSHR misses
system.l2.demand_mshr_misses::total            986620                       # number of demand (read+write) MSHR misses
system.l2.overall_mshr_misses::cpu.inst          1820                       # number of overall MSHR misses
system.l2.overall_mshr_misses::cpu.data        984800                       # number of overall MSHR misses
system.l2.overall_mshr_misses::total           986620                       # number of overall MSHR misses
system.l2.ReadExReq_mshr_miss_latency::cpu.data  39695590000                       # number of ReadExReq MSHR miss cycles
system.l2.ReadExReq_mshr_miss_latency::total  39695590000                       # number of ReadExReq MSHR miss cycles
system.l2.ReadCleanReq_mshr_miss_latency::cpu.inst    143454000                       # number of ReadCleanReq MSHR miss cycles
system.l2.ReadCleanReq_mshr_miss_latency::total    143454000                       # number of ReadCleanReq MSHR miss cycles
system.l2.ReadSharedReq_mshr_miss_latency::cpu.data  44996597000                       # number of ReadSharedReq MSHR miss cycles
system.l2.ReadSharedReq_mshr_miss_latency::total  44996597000                       # number of ReadSharedReq MSHR miss cycles
system.l2.demand_mshr_miss_latency::cpu.inst    143454000                       # number of demand (read+write) MSHR miss cycles
system.l2.demand_mshr_miss_latency::cpu.data  84692187000                       # number of demand (read+write) MSHR miss cycles
system.l2.demand_mshr_miss_latency::total  84835641000                       # number of demand (read+write) MSHR miss cycles
system.l2.overall_mshr_miss_latency::cpu.inst    143454000                       # number of overall MSHR miss cycles
system.l2.overall_mshr_miss_latency::cpu.data  84692187000                       # number of overall MSHR miss cycles
system.l2.overall_mshr_miss_latency::total  84835641000                       # number of overall MSHR miss cycles
system.l2.CleanEvict_mshr_miss_rate::writebacks          inf                       # mshr miss rate for CleanEvict accesses
system.l2.CleanEvict_mshr_miss_rate::total          inf                       # mshr miss rate for CleanEvict accesses
system.l2.ReadExReq_mshr_miss_rate::cpu.data     0.627396                       # mshr miss rate for ReadExReq accesses
system.l2.ReadExReq_mshr_miss_rate::total     0.627396                       # mshr miss rate for ReadExReq accesses
system.l2.ReadCleanReq_mshr_miss_rate::cpu.inst     0.977444                       # mshr miss rate for ReadCleanReq accesses
system.l2.ReadCleanReq_mshr_miss_rate::total     0.977444                       # mshr miss rate for ReadCleanReq accesses
system.l2.ReadSharedReq_mshr_miss_rate::cpu.data     0.249854                       # mshr miss rate for ReadSharedReq accesses
system.l2.ReadSharedReq_mshr_miss_rate::total     0.249854                       # mshr miss rate for ReadSharedReq accesses
system.l2.demand_mshr_miss_rate::cpu.inst     0.977444                       # mshr miss rate for demand accesses
system.l2.demand_mshr_miss_rate::cpu.data     0.351812                       # mshr miss rate for demand accesses
system.l2.demand_mshr_miss_rate::total       0.352228                       # mshr miss rate for demand accesses
system.l2.overall_mshr_miss_rate::cpu.inst     0.977444                       # mshr miss rate for overall accesses
system.l2.overall_mshr_miss_rate::cpu.data     0.351812                       # mshr miss rate for overall accesses
system.l2.overall_mshr_miss_rate::total      0.352228                       # mshr miss rate for overall accesses
system.l2.ReadExReq_avg_mshr_miss_latency::cpu.data 83696.529476                       # average ReadExReq mshr miss latency
system.l2.ReadExReq_avg_mshr_miss_latency::total 83696.529476                       # average ReadExReq mshr miss latency
system.l2.ReadCleanReq_avg_mshr_miss_latency::cpu.inst 78820.879121                       # average ReadCleanReq mshr miss latency
system.l2.ReadCleanReq_avg_mshr_miss_latency::total 78820.879121                       # average ReadCleanReq mshr miss latency
system.l2.ReadSharedReq_avg_mshr_miss_latency::cpu.data 88138.754603                       # average ReadSharedReq mshr miss latency
system.l2.ReadSharedReq_avg_mshr_miss_latency::total 88138.754603                       # average ReadSharedReq mshr miss latency
system.l2.demand_avg_mshr_miss_latency::cpu.inst 78820.879121                       # average overall mshr miss latency
system.l2.demand_avg_mshr_miss_latency::cpu.data 85999.377539                       # average overall mshr miss latency
system.l2.demand_avg_mshr_miss_latency::total 85986.135493                       # average overall mshr miss latency
system.l2.overall_avg_mshr_miss_latency::cpu.inst 78820.879121                       # average overall mshr miss latency
system.l2.overall_avg_mshr_miss_latency::cpu.data 85999.377539                       # average overall mshr miss latency
system.l2.overall_avg_mshr_miss_latency::total 85986.135493                       # average overall mshr miss latency
system.membus.snoop_filter.tot_requests       1939955                       # Total number of requests made to the snoop filter.
system.membus.snoop_filter.hit_single_requests       953335                       # Number of requests hitting in the snoop filter with a single holder of the requested data.
system.membus.snoop_filter.hit_multi_requests            0                       # Number of requests hitting in the snoop filter with multiple (>1) holders of the requested data.
system.membus.snoop_filter.tot_snoops               0                       # Total number of snoops made to the snoop filter.
system.membus.snoop_filter.hit_single_snoops            0                       # Number of snoops hitting in the snoop filter with a single holder of the requested data.
system.membus.snoop_filter.hit_multi_snoops            0                       # Number of snoops hitting in the snoop filter with multiple (>1) holders of the requested data.
system.membus.pwrStateResidencyTicks::UNDEFINED 1099978820500                       # Cumulative time (in ticks) in various power states
system.membus.trans_dist::ReadResp             512340                       # Transaction distribution
system.membus.trans_dist::WritebackDirty       559773                       # Transaction distribution
system.membus.trans_dist::CleanEvict           393562                       # Transaction distribution
system.membus.trans_dist::ReadExReq            474280                       # Transaction distribution
system.membus.trans_dist::ReadExResp           474280                       # Transaction distribution
system.membus.trans_dist::ReadSharedReq        512340                       # Transaction distribution
system.membus.pkt_count_system.l2.mem_side::system.mem_ctrls.port      2926575                       # Packet count per connected master and slave (bytes)
system.membus.pkt_count_system.l2.mem_side::total      2926575                       # Packet count per connected master and slave (bytes)
system.membus.pkt_count::total                2926575                       # Packet count per connected master and slave (bytes)
system.membus.pkt_size_system.l2.mem_side::system.mem_ctrls.port     49484576                       # Cumulative packet size per connected master and slave (bytes)
system.membus.pkt_size_system.l2.mem_side::total     49484576                       # Cumulative packet size per connected master and slave (bytes)
system.membus.pkt_size::total                49484576                       # Cumulative packet size per connected master and slave (bytes)
system.membus.snoops                                0                       # Total snoops (count)
system.membus.snoopTraffic                          0                       # Total snoop traffic (bytes)
system.membus.snoop_fanout::samples            986620                       # Request fanout histogram
system.membus.snoop_fanout::mean                    0                       # Request fanout histogram
system.membus.snoop_fanout::stdev                   0                       # Request fanout histogram
system.membus.snoop_fanout::underflows              0      0.00%      0.00% # Request fanout histogram
system.membus.snoop_fanout::0                  986620    100.00%    100.00% # Request fanout histogram
system.membus.snoop_fanout::1                       0      0.00%    100.00% # Request fanout histogram
system.membus.snoop_fanout::overflows               0      0.00%    100.00% # Request fanout histogram
system.membus.snoop_fanout::min_value               0                       # Request fanout histogram
system.membus.snoop_fanout::max_value               0                       # Request fanout histogram
system.membus.snoop_fanout::total              986620                       # Request fanout histogram
system.membus.reqLayer2.occupancy          3059510000                       # Layer occupancy (ticks)
system.membus.reqLayer2.utilization               0.3                       # Layer utilization (%)
system.membus.respLayer1.occupancy         3351544500                       # Layer occupancy (ticks)
system.membus.respLayer1.utilization              0.3                       # Layer utilization (%)
system.tol2bus.snoop_filter.tot_requests      5599122                       # Total number of requests made to the snoop filter.
system.tol2bus.snoop_filter.hit_single_requests      2798035                       # Number of requests hitting in the snoop filter with a single holder of the requested data.
system.tol2bus.snoop_filter.hit_multi_requests            1                       # Number of requests hitting in the snoop filter with multiple (>1) holders of the requested data.
system.tol2bus.snoop_filter.tot_snoops           1637                       # Total number of snoops made to the snoop filter.
system.tol2bus.snoop_filter.hit_single_snoops         1637                       # Number of snoops hitting in the snoop filter with a single holder of the requested data.
system.tol2bus.snoop_filter.hit_multi_snoops            0                       # Number of snoops hitting in the snoop filter with multiple (>1) holders of the requested data.
system.tol2bus.pwrStateResidencyTicks::UNDEFINED 1099978820500                       # Cumulative time (in ticks) in various power states
system.tol2bus.trans_dist::ReadResp           2045137                       # Transaction distribution
system.tol2bus.trans_dist::WritebackDirty      1855266                       # Transaction distribution
system.tol2bus.trans_dist::WritebackClean          858                       # Transaction distribution
system.tol2bus.trans_dist::CleanEvict         1896788                       # Transaction distribution
system.tol2bus.trans_dist::ReadExReq           755950                       # Transaction distribution
system.tol2bus.trans_dist::ReadExResp          755950                       # Transaction distribution
system.tol2bus.trans_dist::ReadCleanReq          1862                       # Transaction distribution
system.tol2bus.trans_dist::ReadSharedReq      2043275                       # Transaction distribution
system.tol2bus.pkt_count_system.cpu.icache.mem_side::system.l2.cpu_side         4582                       # Packet count per connected master and slave (bytes)
system.tol2bus.pkt_count_system.cpu.dcache.mem_side::system.l2.cpu_side      8395627                       # Packet count per connected master and slave (bytes)
system.tol2bus.pkt_count::total               8400209                       # Packet count per connected master and slave (bytes)
system.tol2bus.pkt_size_system.cpu.icache.mem_side::system.l2.cpu_side        87040                       # Cumulative packet size per connected master and slave (bytes)
system.tol2bus.pkt_size_system.cpu.dcache.mem_side::system.l2.cpu_side    131030976                       # Cumulative packet size per connected master and slave (bytes)
system.tol2bus.pkt_size::total              131118016                       # Cumulative packet size per connected master and slave (bytes)
system.tol2bus.snoops                          954877                       # Total snoops (count)
system.tol2bus.snoopTraffic                  17912736                       # Total snoop traffic (bytes)
system.tol2bus.snoop_fanout::samples          3755964                       # Request fanout histogram
system.tol2bus.snoop_fanout::mean            0.000436                       # Request fanout histogram
system.tol2bus.snoop_fanout::stdev           0.020879                       # Request fanout histogram
system.tol2bus.snoop_fanout::underflows             0      0.00%      0.00% # Request fanout histogram
system.tol2bus.snoop_fanout::0                3754326     99.96%     99.96% # Request fanout histogram
system.tol2bus.snoop_fanout::1                   1638      0.04%    100.00% # Request fanout histogram
system.tol2bus.snoop_fanout::2                      0      0.00%    100.00% # Request fanout histogram
system.tol2bus.snoop_fanout::3                      0      0.00%    100.00% # Request fanout histogram
system.tol2bus.snoop_fanout::4                      0      0.00%    100.00% # Request fanout histogram
system.tol2bus.snoop_fanout::overflows              0      0.00%    100.00% # Request fanout histogram
system.tol2bus.snoop_fanout::min_value              0                       # Request fanout histogram
system.tol2bus.snoop_fanout::max_value              1                       # Request fanout histogram
system.tol2bus.snoop_fanout::total            3755964                       # Request fanout histogram
system.tol2bus.reqLayer0.occupancy         3447736500                       # Layer occupancy (ticks)
system.tol2bus.reqLayer0.utilization              0.3                       # Layer utilization (%)
system.tol2bus.respLayer0.occupancy           1862000                       # Layer occupancy (ticks)
system.tol2bus.respLayer0.utilization             0.0                       # Layer utilization (%)
system.tol2bus.respLayer1.occupancy        2799225000                       # Layer occupancy (ticks)
system.tol2bus.respLayer1.utilization             0.3                       # Layer utilization (%)

---------- End Simulation Statistics   ----------
