
---------- Begin Simulation Statistics ----------
sim_seconds                                  1.753330                       # Number of seconds simulated
sim_ticks                                1753330020000                       # Number of ticks simulated
final_tick                               1753330020000                       # Number of ticks from beginning of simulation (restored from checkpoints and never reset)
sim_freq                                 1000000000000                       # Frequency of simulated ticks
host_inst_rate                                 496670                       # Simulator instruction rate (inst/s)
host_op_rate                                   817884                       # Simulator op (including micro ops) rate (op/s)
host_tick_rate                             1741654357                       # Simulator tick rate (ticks/s)
host_mem_usage                                 666404                       # Number of bytes of host memory used
host_seconds                                  1006.70                       # Real time elapsed on the host
sim_insts                                   500000000                       # Number of instructions simulated
sim_ops                                     823366692                       # Number of ops (including micro ops) simulated
system.voltage_domain.voltage                       1                       # Voltage in Volts
system.clk_domain.clock                          1000                       # Clock period in ticks
system.mem_ctrls.pwrStateResidencyTicks::UNDEFINED 1753330020000                       # Cumulative time (in ticks) in various power states
system.mem_ctrls.bytes_read::cpu.inst          205568                       # Number of bytes read from this memory
system.mem_ctrls.bytes_read::cpu.data       536108736                       # Number of bytes read from this memory
system.mem_ctrls.bytes_read::total          536314304                       # Number of bytes read from this memory
system.mem_ctrls.bytes_inst_read::cpu.inst       205568                       # Number of instructions bytes read from this memory
system.mem_ctrls.bytes_inst_read::total        205568                       # Number of instructions bytes read from this memory
system.mem_ctrls.bytes_written::writebacks    534147008                       # Number of bytes written to this memory
system.mem_ctrls.bytes_written::total       534147008                       # Number of bytes written to this memory
system.mem_ctrls.num_reads::cpu.inst             3212                       # Number of read requests responded to by this memory
system.mem_ctrls.num_reads::cpu.data          8376699                       # Number of read requests responded to by this memory
system.mem_ctrls.num_reads::total             8379911                       # Number of read requests responded to by this memory
system.mem_ctrls.num_writes::writebacks       8346047                       # Number of write requests responded to by this memory
system.mem_ctrls.num_writes::total            8346047                       # Number of write requests responded to by this memory
system.mem_ctrls.bw_read::cpu.inst             117244                       # Total read bandwidth from this memory (bytes/s)
system.mem_ctrls.bw_read::cpu.data          305766017                       # Total read bandwidth from this memory (bytes/s)
system.mem_ctrls.bw_read::total             305883261                       # Total read bandwidth from this memory (bytes/s)
system.mem_ctrls.bw_inst_read::cpu.inst        117244                       # Instruction read bandwidth from this memory (bytes/s)
system.mem_ctrls.bw_inst_read::total           117244                       # Instruction read bandwidth from this memory (bytes/s)
system.mem_ctrls.bw_write::writebacks       304647158                       # Write bandwidth from this memory (bytes/s)
system.mem_ctrls.bw_write::total            304647158                       # Write bandwidth from this memory (bytes/s)
system.mem_ctrls.bw_total::writebacks       304647158                       # Total bandwidth to/from this memory (bytes/s)
system.mem_ctrls.bw_total::cpu.inst            117244                       # Total bandwidth to/from this memory (bytes/s)
system.mem_ctrls.bw_total::cpu.data         305766017                       # Total bandwidth to/from this memory (bytes/s)
system.mem_ctrls.bw_total::total            610530419                       # Total bandwidth to/from this memory (bytes/s)
system.mem_ctrls.readReqs                     8379911                       # Number of read requests accepted
system.mem_ctrls.writeReqs                    8346047                       # Number of write requests accepted
system.mem_ctrls.readBursts                   8379911                       # Number of DRAM read bursts, including those serviced by the write queue
system.mem_ctrls.writeBursts                  8346047                       # Number of DRAM write bursts, including those merged in the write queue
system.mem_ctrls.bytesReadDRAM              536310464                       # Total number of bytes read from DRAM
system.mem_ctrls.bytesReadWrQ                    3840                       # Total number of bytes read from write queue
system.mem_ctrls.bytesWritten               534145536                       # Total number of bytes written to DRAM
system.mem_ctrls.bytesReadSys               536314304                       # Total read bytes from the system interface side
system.mem_ctrls.bytesWrittenSys            534147008                       # Total written bytes from the system interface side
system.mem_ctrls.servicedByWrQ                     60                       # Number of DRAM read bursts serviced by the write queue
system.mem_ctrls.mergedWrBursts                     0                       # Number of DRAM write bursts merged with an existing one
system.mem_ctrls.neitherReadNorWriteReqs            0                       # Number of requests that are neither read nor write
system.mem_ctrls.perBankRdBursts::0            523462                       # Per bank write bursts
system.mem_ctrls.perBankRdBursts::1            523204                       # Per bank write bursts
system.mem_ctrls.perBankRdBursts::2            523414                       # Per bank write bursts
system.mem_ctrls.perBankRdBursts::3            524053                       # Per bank write bursts
system.mem_ctrls.perBankRdBursts::4            523878                       # Per bank write bursts
system.mem_ctrls.perBankRdBursts::5            523789                       # Per bank write bursts
system.mem_ctrls.perBankRdBursts::6            523767                       # Per bank write bursts
system.mem_ctrls.perBankRdBursts::7            523783                       # Per bank write bursts
system.mem_ctrls.perBankRdBursts::8            523220                       # Per bank write bursts
system.mem_ctrls.perBankRdBursts::9            523617                       # Per bank write bursts
system.mem_ctrls.perBankRdBursts::10           523998                       # Per bank write bursts
system.mem_ctrls.perBankRdBursts::11           524330                       # Per bank write bursts
system.mem_ctrls.perBankRdBursts::12           523977                       # Per bank write bursts
system.mem_ctrls.perBankRdBursts::13           523857                       # Per bank write bursts
system.mem_ctrls.perBankRdBursts::14           523654                       # Per bank write bursts
system.mem_ctrls.perBankRdBursts::15           523848                       # Per bank write bursts
system.mem_ctrls.perBankWrBursts::0            521535                       # Per bank write bursts
system.mem_ctrls.perBankWrBursts::1            521334                       # Per bank write bursts
system.mem_ctrls.perBankWrBursts::2            521557                       # Per bank write bursts
system.mem_ctrls.perBankWrBursts::3            521862                       # Per bank write bursts
system.mem_ctrls.perBankWrBursts::4            521617                       # Per bank write bursts
system.mem_ctrls.perBankWrBursts::5            521756                       # Per bank write bursts
system.mem_ctrls.perBankWrBursts::6            521537                       # Per bank write bursts
system.mem_ctrls.perBankWrBursts::7            521571                       # Per bank write bursts
system.mem_ctrls.perBankWrBursts::8            521317                       # Per bank write bursts
system.mem_ctrls.perBankWrBursts::9            521482                       # Per bank write bursts
system.mem_ctrls.perBankWrBursts::10           521641                       # Per bank write bursts
system.mem_ctrls.perBankWrBursts::11           521797                       # Per bank write bursts
system.mem_ctrls.perBankWrBursts::12           521822                       # Per bank write bursts
system.mem_ctrls.perBankWrBursts::13           521835                       # Per bank write bursts
system.mem_ctrls.perBankWrBursts::14           521677                       # Per bank write bursts
system.mem_ctrls.perBankWrBursts::15           521684                       # Per bank write bursts
system.mem_ctrls.numRdRetry                         0                       # Number of times read queue was full causing retry
system.mem_ctrls.numWrRetry                         0                       # Number of times write queue was full causing retry
system.mem_ctrls.totGap                  1753306749500                       # Total gap between requests
system.mem_ctrls.readPktSize::0                     0                       # Read request sizes (log2)
system.mem_ctrls.readPktSize::1                     0                       # Read request sizes (log2)
system.mem_ctrls.readPktSize::2                     0                       # Read request sizes (log2)
system.mem_ctrls.readPktSize::3                     0                       # Read request sizes (log2)
system.mem_ctrls.readPktSize::4                     0                       # Read request sizes (log2)
system.mem_ctrls.readPktSize::5                     0                       # Read request sizes (log2)
system.mem_ctrls.readPktSize::6               8379911                       # Read request sizes (log2)
system.mem_ctrls.writePktSize::0                    0                       # Write request sizes (log2)
system.mem_ctrls.writePktSize::1                    0                       # Write request sizes (log2)
system.mem_ctrls.writePktSize::2                    0                       # Write request sizes (log2)
system.mem_ctrls.writePktSize::3                    0                       # Write request sizes (log2)
system.mem_ctrls.writePktSize::4                    0                       # Write request sizes (log2)
system.mem_ctrls.writePktSize::5                    0                       # Write request sizes (log2)
system.mem_ctrls.writePktSize::6              8346047                       # Write request sizes (log2)
system.mem_ctrls.rdQLenPdf::0                 8379850                       # What read queue length does an incoming req see
system.mem_ctrls.rdQLenPdf::1                       1                       # What read queue length does an incoming req see
system.mem_ctrls.rdQLenPdf::2                       0                       # What read queue length does an incoming req see
system.mem_ctrls.rdQLenPdf::3                       0                       # What read queue length does an incoming req see
system.mem_ctrls.rdQLenPdf::4                       0                       # What read queue length does an incoming req see
system.mem_ctrls.rdQLenPdf::5                       0                       # What read queue length does an incoming req see
system.mem_ctrls.rdQLenPdf::6                       0                       # What read queue length does an incoming req see
system.mem_ctrls.rdQLenPdf::7                       0                       # What read queue length does an incoming req see
system.mem_ctrls.rdQLenPdf::8                       0                       # What read queue length does an incoming req see
system.mem_ctrls.rdQLenPdf::9                       0                       # What read queue length does an incoming req see
system.mem_ctrls.rdQLenPdf::10                      0                       # What read queue length does an incoming req see
system.mem_ctrls.rdQLenPdf::11                      0                       # What read queue length does an incoming req see
system.mem_ctrls.rdQLenPdf::12                      0                       # What read queue length does an incoming req see
system.mem_ctrls.rdQLenPdf::13                      0                       # What read queue length does an incoming req see
system.mem_ctrls.rdQLenPdf::14                      0                       # What read queue length does an incoming req see
system.mem_ctrls.rdQLenPdf::15                      0                       # What read queue length does an incoming req see
system.mem_ctrls.rdQLenPdf::16                      0                       # What read queue length does an incoming req see
system.mem_ctrls.rdQLenPdf::17                      0                       # What read queue length does an incoming req see
system.mem_ctrls.rdQLenPdf::18                      0                       # What read queue length does an incoming req see
system.mem_ctrls.rdQLenPdf::19                      0                       # What read queue length does an incoming req see
system.mem_ctrls.rdQLenPdf::20                      0                       # What read queue length does an incoming req see
system.mem_ctrls.rdQLenPdf::21                      0                       # What read queue length does an incoming req see
system.mem_ctrls.rdQLenPdf::22                      0                       # What read queue length does an incoming req see
system.mem_ctrls.rdQLenPdf::23                      0                       # What read queue length does an incoming req see
system.mem_ctrls.rdQLenPdf::24                      0                       # What read queue length does an incoming req see
system.mem_ctrls.rdQLenPdf::25                      0                       # What read queue length does an incoming req see
system.mem_ctrls.rdQLenPdf::26                      0                       # What read queue length does an incoming req see
system.mem_ctrls.rdQLenPdf::27                      0                       # What read queue length does an incoming req see
system.mem_ctrls.rdQLenPdf::28                      0                       # What read queue length does an incoming req see
system.mem_ctrls.rdQLenPdf::29                      0                       # What read queue length does an incoming req see
system.mem_ctrls.rdQLenPdf::30                      0                       # What read queue length does an incoming req see
system.mem_ctrls.rdQLenPdf::31                      0                       # What read queue length does an incoming req see
system.mem_ctrls.wrQLenPdf::0                       1                       # What write queue length does an incoming req see
system.mem_ctrls.wrQLenPdf::1                       1                       # What write queue length does an incoming req see
system.mem_ctrls.wrQLenPdf::2                       1                       # What write queue length does an incoming req see
system.mem_ctrls.wrQLenPdf::3                       1                       # What write queue length does an incoming req see
system.mem_ctrls.wrQLenPdf::4                       1                       # What write queue length does an incoming req see
system.mem_ctrls.wrQLenPdf::5                       1                       # What write queue length does an incoming req see
system.mem_ctrls.wrQLenPdf::6                       1                       # What write queue length does an incoming req see
system.mem_ctrls.wrQLenPdf::7                       1                       # What write queue length does an incoming req see
system.mem_ctrls.wrQLenPdf::8                       1                       # What write queue length does an incoming req see
system.mem_ctrls.wrQLenPdf::9                       1                       # What write queue length does an incoming req see
system.mem_ctrls.wrQLenPdf::10                      1                       # What write queue length does an incoming req see
system.mem_ctrls.wrQLenPdf::11                      1                       # What write queue length does an incoming req see
system.mem_ctrls.wrQLenPdf::12                      1                       # What write queue length does an incoming req see
system.mem_ctrls.wrQLenPdf::13                      1                       # What write queue length does an incoming req see
system.mem_ctrls.wrQLenPdf::14                      1                       # What write queue length does an incoming req see
system.mem_ctrls.wrQLenPdf::15                   5082                       # What write queue length does an incoming req see
system.mem_ctrls.wrQLenPdf::16                   5117                       # What write queue length does an incoming req see
system.mem_ctrls.wrQLenPdf::17                 520945                       # What write queue length does an incoming req see
system.mem_ctrls.wrQLenPdf::18                 520989                       # What write queue length does an incoming req see
system.mem_ctrls.wrQLenPdf::19                 520989                       # What write queue length does an incoming req see
system.mem_ctrls.wrQLenPdf::20                 520989                       # What write queue length does an incoming req see
system.mem_ctrls.wrQLenPdf::21                 520989                       # What write queue length does an incoming req see
system.mem_ctrls.wrQLenPdf::22                 520989                       # What write queue length does an incoming req see
system.mem_ctrls.wrQLenPdf::23                 520988                       # What write queue length does an incoming req see
system.mem_ctrls.wrQLenPdf::24                 520988                       # What write queue length does an incoming req see
system.mem_ctrls.wrQLenPdf::25                 520991                       # What write queue length does an incoming req see
system.mem_ctrls.wrQLenPdf::26                 520994                       # What write queue length does an incoming req see
system.mem_ctrls.wrQLenPdf::27                 520990                       # What write queue length does an incoming req see
system.mem_ctrls.wrQLenPdf::28                 520991                       # What write queue length does an incoming req see
system.mem_ctrls.wrQLenPdf::29                 521032                       # What write queue length does an incoming req see
system.mem_ctrls.wrQLenPdf::30                 520992                       # What write queue length does an incoming req see
system.mem_ctrls.wrQLenPdf::31                 520989                       # What write queue length does an incoming req see
system.mem_ctrls.wrQLenPdf::32                 520988                       # What write queue length does an incoming req see
system.mem_ctrls.wrQLenPdf::33                      0                       # What write queue length does an incoming req see
system.mem_ctrls.wrQLenPdf::34                      0                       # What write queue length does an incoming req see
system.mem_ctrls.wrQLenPdf::35                      0                       # What write queue length does an incoming req see
system.mem_ctrls.wrQLenPdf::36                      0                       # What write queue length does an incoming req see
system.mem_ctrls.wrQLenPdf::37                      0                       # What write queue length does an incoming req see
system.mem_ctrls.wrQLenPdf::38                      0                       # What write queue length does an incoming req see
system.mem_ctrls.wrQLenPdf::39                      0                       # What write queue length does an incoming req see
system.mem_ctrls.wrQLenPdf::40                      0                       # What write queue length does an incoming req see
system.mem_ctrls.wrQLenPdf::41                      0                       # What write queue length does an incoming req see
system.mem_ctrls.wrQLenPdf::42                      0                       # What write queue length does an incoming req see
system.mem_ctrls.wrQLenPdf::43                      0                       # What write queue length does an incoming req see
system.mem_ctrls.wrQLenPdf::44                      0                       # What write queue length does an incoming req see
system.mem_ctrls.wrQLenPdf::45                      0                       # What write queue length does an incoming req see
system.mem_ctrls.wrQLenPdf::46                      0                       # What write queue length does an incoming req see
system.mem_ctrls.wrQLenPdf::47                      0                       # What write queue length does an incoming req see
system.mem_ctrls.wrQLenPdf::48                      0                       # What write queue length does an incoming req see
system.mem_ctrls.wrQLenPdf::49                      0                       # What write queue length does an incoming req see
system.mem_ctrls.wrQLenPdf::50                      0                       # What write queue length does an incoming req see
system.mem_ctrls.wrQLenPdf::51                      0                       # What write queue length does an incoming req see
system.mem_ctrls.wrQLenPdf::52                      0                       # What write queue length does an incoming req see
system.mem_ctrls.wrQLenPdf::53                      0                       # What write queue length does an incoming req see
system.mem_ctrls.wrQLenPdf::54                      0                       # What write queue length does an incoming req see
system.mem_ctrls.wrQLenPdf::55                      0                       # What write queue length does an incoming req see
system.mem_ctrls.wrQLenPdf::56                      0                       # What write queue length does an incoming req see
system.mem_ctrls.wrQLenPdf::57                      0                       # What write queue length does an incoming req see
system.mem_ctrls.wrQLenPdf::58                      0                       # What write queue length does an incoming req see
system.mem_ctrls.wrQLenPdf::59                      0                       # What write queue length does an incoming req see
system.mem_ctrls.wrQLenPdf::60                      0                       # What write queue length does an incoming req see
system.mem_ctrls.wrQLenPdf::61                      0                       # What write queue length does an incoming req see
system.mem_ctrls.wrQLenPdf::62                      0                       # What write queue length does an incoming req see
system.mem_ctrls.wrQLenPdf::63                      0                       # What write queue length does an incoming req see
system.mem_ctrls.bytesPerActivate::samples      1417499                       # Bytes accessed per row activation
system.mem_ctrls.bytesPerActivate::mean    755.172314                       # Bytes accessed per row activation
system.mem_ctrls.bytesPerActivate::gmean   554.650539                       # Bytes accessed per row activation
system.mem_ctrls.bytesPerActivate::stdev   378.337085                       # Bytes accessed per row activation
system.mem_ctrls.bytesPerActivate::0-127       193689     13.66%     13.66% # Bytes accessed per row activation
system.mem_ctrls.bytesPerActivate::128-255        80608      5.69%     19.35% # Bytes accessed per row activation
system.mem_ctrls.bytesPerActivate::256-383        43403      3.06%     22.41% # Bytes accessed per row activation
system.mem_ctrls.bytesPerActivate::384-511        53068      3.74%     26.16% # Bytes accessed per row activation
system.mem_ctrls.bytesPerActivate::512-639        67414      4.76%     30.91% # Bytes accessed per row activation
system.mem_ctrls.bytesPerActivate::640-767        32057      2.26%     33.17% # Bytes accessed per row activation
system.mem_ctrls.bytesPerActivate::768-895        45945      3.24%     36.42% # Bytes accessed per row activation
system.mem_ctrls.bytesPerActivate::896-1023        74566      5.26%     41.68% # Bytes accessed per row activation
system.mem_ctrls.bytesPerActivate::1024-1151       826749     58.32%    100.00% # Bytes accessed per row activation
system.mem_ctrls.bytesPerActivate::total      1417499                       # Bytes accessed per row activation
system.mem_ctrls.rdPerTurnAround::samples       520988                       # Reads before turning the bus around for writes
system.mem_ctrls.rdPerTurnAround::mean      16.084513                       # Reads before turning the bus around for writes
system.mem_ctrls.rdPerTurnAround::gmean     16.045649                       # Reads before turning the bus around for writes
system.mem_ctrls.rdPerTurnAround::stdev     16.698252                       # Reads before turning the bus around for writes
system.mem_ctrls.rdPerTurnAround::0-511        520985    100.00%    100.00% # Reads before turning the bus around for writes
system.mem_ctrls.rdPerTurnAround::1024-1535            1      0.00%    100.00% # Reads before turning the bus around for writes
system.mem_ctrls.rdPerTurnAround::1536-2047            1      0.00%    100.00% # Reads before turning the bus around for writes
system.mem_ctrls.rdPerTurnAround::11776-12287            1      0.00%    100.00% # Reads before turning the bus around for writes
system.mem_ctrls.rdPerTurnAround::total        520988                       # Reads before turning the bus around for writes
system.mem_ctrls.wrPerTurnAround::samples       520988                       # Writes before turning the bus around for reads
system.mem_ctrls.wrPerTurnAround::mean      16.019609                       # Writes before turning the bus around for reads
system.mem_ctrls.wrPerTurnAround::gmean     16.018487                       # Writes before turning the bus around for reads
system.mem_ctrls.wrPerTurnAround::stdev      0.197159                       # Writes before turning the bus around for reads
system.mem_ctrls.wrPerTurnAround::16           515872     99.02%     99.02% # Writes before turning the bus around for reads
system.mem_ctrls.wrPerTurnAround::17               34      0.01%     99.02% # Writes before turning the bus around for reads
system.mem_ctrls.wrPerTurnAround::18             5064      0.97%    100.00% # Writes before turning the bus around for reads
system.mem_ctrls.wrPerTurnAround::19               18      0.00%    100.00% # Writes before turning the bus around for reads
system.mem_ctrls.wrPerTurnAround::total        520988                       # Writes before turning the bus around for reads
system.mem_ctrls.totQLat                 165463175750                       # Total ticks spent queuing
system.mem_ctrls.totMemAccLat            322585382000                       # Total ticks spent from burst creation until serviced by the DRAM
system.mem_ctrls.totBusLat                41899255000                       # Total ticks spent in databus transfers
system.mem_ctrls.avgQLat                     19745.36                       # Average queueing delay per DRAM burst
system.mem_ctrls.avgBusLat                    5000.00                       # Average bus latency per DRAM burst
system.mem_ctrls.avgMemAccLat                38495.36                       # Average memory access latency per DRAM burst
system.mem_ctrls.avgRdBW                       305.88                       # Average DRAM read bandwidth in MiByte/s
system.mem_ctrls.avgWrBW                       304.65                       # Average achieved write bandwidth in MiByte/s
system.mem_ctrls.avgRdBWSys                    305.88                       # Average system read bandwidth in MiByte/s
system.mem_ctrls.avgWrBWSys                    304.65                       # Average system write bandwidth in MiByte/s
system.mem_ctrls.peakBW                      12800.00                       # Theoretical peak bandwidth in MiByte/s
system.mem_ctrls.busUtil                         4.77                       # Data bus utilization in percentage
system.mem_ctrls.busUtilRead                     2.39                       # Data bus utilization in percentage for reads
system.mem_ctrls.busUtilWrite                    2.38                       # Data bus utilization in percentage for writes
system.mem_ctrls.avgRdQLen                       1.00                       # Average read queue length when enqueuing
system.mem_ctrls.avgWrQLen                      25.22                       # Average write queue length when enqueuing
system.mem_ctrls.readRowHits                  7613176                       # Number of row buffer hits during reads
system.mem_ctrls.writeRowHits                 7695200                       # Number of row buffer hits during writes
system.mem_ctrls.readRowHitRate                 90.85                       # Row buffer hit rate for reads
system.mem_ctrls.writeRowHitRate                92.20                       # Row buffer hit rate for writes
system.mem_ctrls.avgGap                     104825.49                       # Average gap between requests
system.mem_ctrls.pageHitRate                    91.52                       # Row buffer hit rate, read and write combined
system.mem_ctrls_0.actEnergy               5066936700                       # Energy for activate commands per rank (pJ)
system.mem_ctrls_0.preEnergy               2693140725                       # Energy for precharge commands per rank (pJ)
system.mem_ctrls_0.readEnergy             29911959000                       # Energy for read commands per rank (pJ)
system.mem_ctrls_0.writeEnergy            21781854180                       # Energy for write commands per rank (pJ)
system.mem_ctrls_0.refreshEnergy         85609517760.000015                       # Energy for refresh commands per rank (pJ)
system.mem_ctrls_0.actBackEnergy          96101601570                       # Energy for active background per rank (pJ)
system.mem_ctrls_0.preBackEnergy           6674804160                       # Energy for precharge background per rank (pJ)
system.mem_ctrls_0.actPowerDownEnergy    203366609250                       # Energy for active power-down per rank (pJ)
system.mem_ctrls_0.prePowerDownEnergy     87642672480                       # Energy for precharge power-down per rank (pJ)
system.mem_ctrls_0.selfRefreshEnergy     218115685290                       # Energy for self refresh per rank (pJ)
system.mem_ctrls_0.totalEnergy           756983084355                       # Total energy per rank (pJ)
system.mem_ctrls_0.averagePower            431.740217                       # Core power per rank (mW)
system.mem_ctrls_0.totalIdleTime         1525199752250                       # Total Idle time Per DRAM Rank
system.mem_ctrls_0.memoryStateTime::IDLE   9388261750                       # Time in different power states
system.mem_ctrls_0.memoryStateTime::REF   36371772000                       # Time in different power states
system.mem_ctrls_0.memoryStateTime::SREF 850941488500                       # Time in different power states
system.mem_ctrls_0.memoryStateTime::PRE_PDN 228237932250                       # Time in different power states
system.mem_ctrls_0.memoryStateTime::ACT  182355311750                       # Time in different power states
system.mem_ctrls_0.memoryStateTime::ACT_PDN 446035253750                       # Time in different power states
system.mem_ctrls_1.actEnergy               5054006160                       # Energy for activate commands per rank (pJ)
system.mem_ctrls_1.preEnergy               2686267980                       # Energy for precharge commands per rank (pJ)
system.mem_ctrls_1.readEnergy             29920177140                       # Energy for read commands per rank (pJ)
system.mem_ctrls_1.writeEnergy            21784391100                       # Energy for write commands per rank (pJ)
system.mem_ctrls_1.refreshEnergy         85268392560.000015                       # Energy for refresh commands per rank (pJ)
system.mem_ctrls_1.actBackEnergy          95824569600                       # Energy for active background per rank (pJ)
system.mem_ctrls_1.preBackEnergy           6657042720                       # Energy for precharge background per rank (pJ)
system.mem_ctrls_1.actPowerDownEnergy    203178322860                       # Energy for active power-down per rank (pJ)
system.mem_ctrls_1.prePowerDownEnergy     87106938720                       # Energy for precharge power-down per rank (pJ)
system.mem_ctrls_1.selfRefreshEnergy     218564628315                       # Energy for self refresh per rank (pJ)
system.mem_ctrls_1.totalEnergy           756064753215                       # Total energy per rank (pJ)
system.mem_ctrls_1.averagePower            431.216452                       # Core power per rank (mW)
system.mem_ctrls_1.totalIdleTime         1525786144500                       # Total Idle time Per DRAM Rank
system.mem_ctrls_1.memoryStateTime::IDLE   9328152250                       # Time in different power states
system.mem_ctrls_1.memoryStateTime::REF   36225090000                       # Time in different power states
system.mem_ctrls_1.memoryStateTime::SREF 853399543000                       # Time in different power states
system.mem_ctrls_1.memoryStateTime::PRE_PDN 226843138250                       # Time in different power states
system.mem_ctrls_1.memoryStateTime::ACT  181923479750                       # Time in different power states
system.mem_ctrls_1.memoryStateTime::ACT_PDN 445610616750                       # Time in different power states
system.pwrStateResidencyTicks::UNDEFINED 1753330020000                       # Cumulative time (in ticks) in various power states
system.cpu_voltage_domain.voltage                   1                       # Voltage in Volts
system.cpu_clk_domain.clock                       500                       # Clock period in ticks
system.cpu.dtb.walker.pwrStateResidencyTicks::UNDEFINED 1753330020000                       # Cumulative time (in ticks) in various power states
system.cpu.apic_clk_domain.clock                 8000                       # Clock period in ticks
system.cpu.interrupts.pwrStateResidencyTicks::UNDEFINED 1753330020000                       # Cumulative time (in ticks) in various power states
system.cpu.itb.walker.pwrStateResidencyTicks::UNDEFINED 1753330020000                       # Cumulative time (in ticks) in various power states
system.cpu.workload.num_syscalls                  196                       # Number of system calls
system.cpu.pwrStateResidencyTicks::ON    1753330020000                       # Cumulative time (in ticks) in various power states
system.cpu.numCycles                       3506660040                       # number of cpu cycles simulated
system.cpu.numWorkItemsStarted                      0                       # number of work items this cpu started
system.cpu.numWorkItemsCompleted                    0                       # number of work items this cpu completed
system.cpu.committedInsts                   500000000                       # Number of instructions committed
system.cpu.committedOps                     823366692                       # Number of ops (including micro ops) committed
system.cpu.num_int_alu_accesses             821415783                       # Number of integer alu accesses
system.cpu.num_fp_alu_accesses               66619246                       # Number of float alu accesses
system.cpu.num_func_calls                     5652773                       # number of times a function call or return occured
system.cpu.num_conditional_control_insts     57208853                       # number of instructions that are conditional controls
system.cpu.num_int_insts                    821415783                       # number of integer instructions
system.cpu.num_fp_insts                      66619246                       # number of float instructions
system.cpu.num_int_register_reads          1637209917                       # number of times the integer registers were read
system.cpu.num_int_register_writes          639871082                       # number of times the integer registers were written
system.cpu.num_fp_register_reads             66766836                       # number of times the floating registers were read
system.cpu.num_fp_register_writes              208042                       # number of times the floating registers were written
system.cpu.num_cc_register_reads            319714243                       # number of times the CC registers were read
system.cpu.num_cc_register_writes           287984022                       # number of times the CC registers were written
system.cpu.num_mem_refs                     271673939                       # number of memory refs
system.cpu.num_load_insts                   157213791                       # Number of load instructions
system.cpu.num_store_insts                  114460148                       # Number of store instructions
system.cpu.num_idle_cycles                          0                       # Number of idle cycles
system.cpu.num_busy_cycles                 3506660040                       # Number of busy cycles
system.cpu.not_idle_fraction                        1                       # Percentage of non-idle cycles
system.cpu.idle_fraction                            0                       # Percentage of idle cycles
system.cpu.Branches                          69678400                       # Number of branches fetched
system.cpu.op_class::No_OpClass                202234      0.02%      0.02% # Class of executed instruction
system.cpu.op_class::IntAlu                 550028817     66.80%     66.83% # Class of executed instruction
system.cpu.op_class::IntMult                   125092      0.02%     66.84% # Class of executed instruction
system.cpu.op_class::IntDiv                   1153479      0.14%     66.98% # Class of executed instruction
system.cpu.op_class::FloatAdd                  183131      0.02%     67.00% # Class of executed instruction
system.cpu.op_class::FloatCmp                       0      0.00%     67.00% # Class of executed instruction
system.cpu.op_class::FloatCvt                       0      0.00%     67.00% # Class of executed instruction
system.cpu.op_class::FloatMult                      0      0.00%     67.00% # Class of executed instruction
system.cpu.op_class::FloatDiv                       0      0.00%     67.00% # Class of executed instruction
system.cpu.op_class::FloatSqrt                      0      0.00%     67.00% # Class of executed instruction
system.cpu.op_class::SimdAdd                        0      0.00%     67.00% # Class of executed instruction
system.cpu.op_class::SimdAddAcc                     0      0.00%     67.00% # Class of executed instruction
system.cpu.op_class::SimdAlu                        0      0.00%     67.00% # Class of executed instruction
system.cpu.op_class::SimdCmp                        0      0.00%     67.00% # Class of executed instruction
system.cpu.op_class::SimdCvt                        0      0.00%     67.00% # Class of executed instruction
system.cpu.op_class::SimdMisc                       0      0.00%     67.00% # Class of executed instruction
system.cpu.op_class::SimdMult                       0      0.00%     67.00% # Class of executed instruction
system.cpu.op_class::SimdMultAcc                    0      0.00%     67.00% # Class of executed instruction
system.cpu.op_class::SimdShift                      0      0.00%     67.00% # Class of executed instruction
system.cpu.op_class::SimdShiftAcc                   0      0.00%     67.00% # Class of executed instruction
system.cpu.op_class::SimdSqrt                       0      0.00%     67.00% # Class of executed instruction
system.cpu.op_class::SimdFloatAdd                   0      0.00%     67.00% # Class of executed instruction
system.cpu.op_class::SimdFloatAlu                   0      0.00%     67.00% # Class of executed instruction
system.cpu.op_class::SimdFloatCmp                   0      0.00%     67.00% # Class of executed instruction
system.cpu.op_class::SimdFloatCvt                   0      0.00%     67.00% # Class of executed instruction
system.cpu.op_class::SimdFloatDiv                   0      0.00%     67.00% # Class of executed instruction
system.cpu.op_class::SimdFloatMisc                  0      0.00%     67.00% # Class of executed instruction
system.cpu.op_class::SimdFloatMult                  0      0.00%     67.00% # Class of executed instruction
system.cpu.op_class::SimdFloatMultAcc               0      0.00%     67.00% # Class of executed instruction
system.cpu.op_class::SimdFloatSqrt                  0      0.00%     67.00% # Class of executed instruction
system.cpu.op_class::MemRead                157213791     19.09%     86.10% # Class of executed instruction
system.cpu.op_class::MemWrite               114460148     13.90%    100.00% # Class of executed instruction
system.cpu.op_class::IprAccess                      0      0.00%    100.00% # Class of executed instruction
system.cpu.op_class::InstPrefetch                   0      0.00%    100.00% # Class of executed instruction
system.cpu.op_class::total                  823366692                       # Class of executed instruction
system.cpu.dcache.tags.pwrStateResidencyTicks::UNDEFINED 1753330020000                       # Cumulative time (in ticks) in various power states
system.cpu.dcache.tags.replacements           8681684                       # number of replacements
system.cpu.dcache.tags.tagsinuse          2045.106406                       # Cycle average of tags in use
system.cpu.dcache.tags.total_refs           262990811                       # Total number of references to valid blocks.
system.cpu.dcache.tags.sampled_refs           8683732                       # Sample count of references to valid blocks.
system.cpu.dcache.tags.avg_refs             30.285459                       # Average number of references to valid blocks.
system.cpu.dcache.tags.warmup_cycle        7994615500                       # Cycle when the warmup percentage was hit.
system.cpu.dcache.tags.occ_blocks::cpu.data  2045.106406                       # Average occupied blocks per requestor
system.cpu.dcache.tags.occ_percent::cpu.data     0.998587                       # Average percentage of cache occupancy
system.cpu.dcache.tags.occ_percent::total     0.998587                       # Average percentage of cache occupancy
system.cpu.dcache.tags.occ_task_id_blocks::1024         2048                       # Occupied blocks per task id
system.cpu.dcache.tags.age_task_id_blocks_1024::0            1                       # Occupied blocks per task id
system.cpu.dcache.tags.age_task_id_blocks_1024::1           21                       # Occupied blocks per task id
system.cpu.dcache.tags.age_task_id_blocks_1024::2          123                       # Occupied blocks per task id
system.cpu.dcache.tags.age_task_id_blocks_1024::3          699                       # Occupied blocks per task id
system.cpu.dcache.tags.age_task_id_blocks_1024::4         1204                       # Occupied blocks per task id
system.cpu.dcache.tags.occ_task_id_percent::1024            1                       # Percentage of cache occupancy per task id
system.cpu.dcache.tags.tag_accesses         280358275                       # Number of tag accesses
system.cpu.dcache.tags.data_accesses        280358275                       # Number of data accesses
system.cpu.dcache.pwrStateResidencyTicks::UNDEFINED 1753330020000                       # Cumulative time (in ticks) in various power states
system.cpu.dcache.ReadReq_hits::cpu.data    156891875                       # number of ReadReq hits
system.cpu.dcache.ReadReq_hits::total       156891875                       # number of ReadReq hits
system.cpu.dcache.WriteReq_hits::cpu.data    106098936                       # number of WriteReq hits
system.cpu.dcache.WriteReq_hits::total      106098936                       # number of WriteReq hits
system.cpu.dcache.demand_hits::cpu.data     262990811                       # number of demand (read+write) hits
system.cpu.dcache.demand_hits::total        262990811                       # number of demand (read+write) hits
system.cpu.dcache.overall_hits::cpu.data    262990811                       # number of overall hits
system.cpu.dcache.overall_hits::total       262990811                       # number of overall hits
system.cpu.dcache.ReadReq_misses::cpu.data       322508                       # number of ReadReq misses
system.cpu.dcache.ReadReq_misses::total        322508                       # number of ReadReq misses
system.cpu.dcache.WriteReq_misses::cpu.data      8361224                       # number of WriteReq misses
system.cpu.dcache.WriteReq_misses::total      8361224                       # number of WriteReq misses
system.cpu.dcache.demand_misses::cpu.data      8683732                       # number of demand (read+write) misses
system.cpu.dcache.demand_misses::total        8683732                       # number of demand (read+write) misses
system.cpu.dcache.overall_misses::cpu.data      8683732                       # number of overall misses
system.cpu.dcache.overall_misses::total       8683732                       # number of overall misses
system.cpu.dcache.ReadReq_miss_latency::cpu.data  30502496500                       # number of ReadReq miss cycles
system.cpu.dcache.ReadReq_miss_latency::total  30502496500                       # number of ReadReq miss cycles
system.cpu.dcache.WriteReq_miss_latency::cpu.data 741851828500                       # number of WriteReq miss cycles
system.cpu.dcache.WriteReq_miss_latency::total 741851828500                       # number of WriteReq miss cycles
system.cpu.dcache.demand_miss_latency::cpu.data 772354325000                       # number of demand (read+write) miss cycles
system.cpu.dcache.demand_miss_latency::total 772354325000                       # number of demand (read+write) miss cycles
system.cpu.dcache.overall_miss_latency::cpu.data 772354325000                       # number of overall miss cycles
system.cpu.dcache.overall_miss_latency::total 772354325000                       # number of overall miss cycles
system.cpu.dcache.ReadReq_accesses::cpu.data    157214383                       # number of ReadReq accesses(hits+misses)
system.cpu.dcache.ReadReq_accesses::total    157214383                       # number of ReadReq accesses(hits+misses)
system.cpu.dcache.WriteReq_accesses::cpu.data    114460160                       # number of WriteReq accesses(hits+misses)
system.cpu.dcache.WriteReq_accesses::total    114460160                       # number of WriteReq accesses(hits+misses)
system.cpu.dcache.demand_accesses::cpu.data    271674543                       # number of demand (read+write) accesses
system.cpu.dcache.demand_accesses::total    271674543                       # number of demand (read+write) accesses
system.cpu.dcache.overall_accesses::cpu.data    271674543                       # number of overall (read+write) accesses
system.cpu.dcache.overall_accesses::total    271674543                       # number of overall (read+write) accesses
system.cpu.dcache.ReadReq_miss_rate::cpu.data     0.002051                       # miss rate for ReadReq accesses
system.cpu.dcache.ReadReq_miss_rate::total     0.002051                       # miss rate for ReadReq accesses
system.cpu.dcache.WriteReq_miss_rate::cpu.data     0.073049                       # miss rate for WriteReq accesses
system.cpu.dcache.WriteReq_miss_rate::total     0.073049                       # miss rate for WriteReq accesses
system.cpu.dcache.demand_miss_rate::cpu.data     0.031964                       # miss rate for demand accesses
system.cpu.dcache.demand_miss_rate::total     0.031964                       # miss rate for demand accesses
system.cpu.dcache.overall_miss_rate::cpu.data     0.031964                       # miss rate for overall accesses
system.cpu.dcache.overall_miss_rate::total     0.031964                       # miss rate for overall accesses
system.cpu.dcache.ReadReq_avg_miss_latency::cpu.data 94579.038349                       # average ReadReq miss latency
system.cpu.dcache.ReadReq_avg_miss_latency::total 94579.038349                       # average ReadReq miss latency
system.cpu.dcache.WriteReq_avg_miss_latency::cpu.data 88725.266600                       # average WriteReq miss latency
system.cpu.dcache.WriteReq_avg_miss_latency::total 88725.266600                       # average WriteReq miss latency
system.cpu.dcache.demand_avg_miss_latency::cpu.data 88942.671768                       # average overall miss latency
system.cpu.dcache.demand_avg_miss_latency::total 88942.671768                       # average overall miss latency
system.cpu.dcache.overall_avg_miss_latency::cpu.data 88942.671768                       # average overall miss latency
system.cpu.dcache.overall_avg_miss_latency::total 88942.671768                       # average overall miss latency
system.cpu.dcache.blocked_cycles::no_mshrs            0                       # number of cycles access was blocked
system.cpu.dcache.blocked_cycles::no_targets            0                       # number of cycles access was blocked
system.cpu.dcache.blocked::no_mshrs                 0                       # number of cycles access was blocked
system.cpu.dcache.blocked::no_targets               0                       # number of cycles access was blocked
system.cpu.dcache.avg_blocked_cycles::no_mshrs          nan                       # average number of cycles each access was blocked
system.cpu.dcache.avg_blocked_cycles::no_targets          nan                       # average number of cycles each access was blocked
system.cpu.dcache.writebacks::writebacks      8523891                       # number of writebacks
system.cpu.dcache.writebacks::total           8523891                       # number of writebacks
system.cpu.dcache.ReadReq_mshr_misses::cpu.data       322508                       # number of ReadReq MSHR misses
system.cpu.dcache.ReadReq_mshr_misses::total       322508                       # number of ReadReq MSHR misses
system.cpu.dcache.WriteReq_mshr_misses::cpu.data      8361224                       # number of WriteReq MSHR misses
system.cpu.dcache.WriteReq_mshr_misses::total      8361224                       # number of WriteReq MSHR misses
system.cpu.dcache.demand_mshr_misses::cpu.data      8683732                       # number of demand (read+write) MSHR misses
system.cpu.dcache.demand_mshr_misses::total      8683732                       # number of demand (read+write) MSHR misses
system.cpu.dcache.overall_mshr_misses::cpu.data      8683732                       # number of overall MSHR misses
system.cpu.dcache.overall_mshr_misses::total      8683732                       # number of overall MSHR misses
system.cpu.dcache.ReadReq_mshr_miss_latency::cpu.data  30179988500                       # number of ReadReq MSHR miss cycles
system.cpu.dcache.ReadReq_mshr_miss_latency::total  30179988500                       # number of ReadReq MSHR miss cycles
system.cpu.dcache.WriteReq_mshr_miss_latency::cpu.data 733490604500                       # number of WriteReq MSHR miss cycles
system.cpu.dcache.WriteReq_mshr_miss_latency::total 733490604500                       # number of WriteReq MSHR miss cycles
system.cpu.dcache.demand_mshr_miss_latency::cpu.data 763670593000                       # number of demand (read+write) MSHR miss cycles
system.cpu.dcache.demand_mshr_miss_latency::total 763670593000                       # number of demand (read+write) MSHR miss cycles
system.cpu.dcache.overall_mshr_miss_latency::cpu.data 763670593000                       # number of overall MSHR miss cycles
system.cpu.dcache.overall_mshr_miss_latency::total 763670593000                       # number of overall MSHR miss cycles
system.cpu.dcache.ReadReq_mshr_miss_rate::cpu.data     0.002051                       # mshr miss rate for ReadReq accesses
system.cpu.dcache.ReadReq_mshr_miss_rate::total     0.002051                       # mshr miss rate for ReadReq accesses
system.cpu.dcache.WriteReq_mshr_miss_rate::cpu.data     0.073049                       # mshr miss rate for WriteReq accesses
system.cpu.dcache.WriteReq_mshr_miss_rate::total     0.073049                       # mshr miss rate for WriteReq accesses
system.cpu.dcache.demand_mshr_miss_rate::cpu.data     0.031964                       # mshr miss rate for demand accesses
system.cpu.dcache.demand_mshr_miss_rate::total     0.031964                       # mshr miss rate for demand accesses
system.cpu.dcache.overall_mshr_miss_rate::cpu.data     0.031964                       # mshr miss rate for overall accesses
system.cpu.dcache.overall_mshr_miss_rate::total     0.031964                       # mshr miss rate for overall accesses
system.cpu.dcache.ReadReq_avg_mshr_miss_latency::cpu.data 93579.038349                       # average ReadReq mshr miss latency
system.cpu.dcache.ReadReq_avg_mshr_miss_latency::total 93579.038349                       # average ReadReq mshr miss latency
system.cpu.dcache.WriteReq_avg_mshr_miss_latency::cpu.data 87725.266600                       # average WriteReq mshr miss latency
system.cpu.dcache.WriteReq_avg_mshr_miss_latency::total 87725.266600                       # average WriteReq mshr miss latency
system.cpu.dcache.demand_avg_mshr_miss_latency::cpu.data 87942.671768                       # average overall mshr miss latency
system.cpu.dcache.demand_avg_mshr_miss_latency::total 87942.671768                       # average overall mshr miss latency
system.cpu.dcache.overall_avg_mshr_miss_latency::cpu.data 87942.671768                       # average overall mshr miss latency
system.cpu.dcache.overall_avg_mshr_miss_latency::total 87942.671768                       # average overall mshr miss latency
system.cpu.dtb_walker_cache.tags.pwrStateResidencyTicks::UNDEFINED 1753330020000                       # Cumulative time (in ticks) in various power states
system.cpu.dtb_walker_cache.tags.replacements            0                       # number of replacements
system.cpu.dtb_walker_cache.tags.tagsinuse            0                       # Cycle average of tags in use
system.cpu.dtb_walker_cache.tags.total_refs            0                       # Total number of references to valid blocks.
system.cpu.dtb_walker_cache.tags.sampled_refs            0                       # Sample count of references to valid blocks.
system.cpu.dtb_walker_cache.tags.avg_refs          nan                       # Average number of references to valid blocks.
system.cpu.dtb_walker_cache.tags.warmup_cycle            0                       # Cycle when the warmup percentage was hit.
system.cpu.dtb_walker_cache.tags.tag_accesses            0                       # Number of tag accesses
system.cpu.dtb_walker_cache.tags.data_accesses            0                       # Number of data accesses
system.cpu.dtb_walker_cache.pwrStateResidencyTicks::UNDEFINED 1753330020000                       # Cumulative time (in ticks) in various power states
system.cpu.dtb_walker_cache.blocked_cycles::no_mshrs            0                       # number of cycles access was blocked
system.cpu.dtb_walker_cache.blocked_cycles::no_targets            0                       # number of cycles access was blocked
system.cpu.dtb_walker_cache.blocked::no_mshrs            0                       # number of cycles access was blocked
system.cpu.dtb_walker_cache.blocked::no_targets            0                       # number of cycles access was blocked
system.cpu.dtb_walker_cache.avg_blocked_cycles::no_mshrs          nan                       # average number of cycles each access was blocked
system.cpu.dtb_walker_cache.avg_blocked_cycles::no_targets          nan                       # average number of cycles each access was blocked
system.cpu.icache.tags.pwrStateResidencyTicks::UNDEFINED 1753330020000                       # Cumulative time (in ticks) in various power states
system.cpu.icache.tags.replacements           3503776                       # number of replacements
system.cpu.icache.tags.tagsinuse           436.249717                       # Cycle average of tags in use
system.cpu.icache.tags.total_refs           671849370                       # Total number of references to valid blocks.
system.cpu.icache.tags.sampled_refs           3504287                       # Sample count of references to valid blocks.
system.cpu.icache.tags.avg_refs            191.722131                       # Average number of references to valid blocks.
system.cpu.icache.tags.warmup_cycle                 0                       # Cycle when the warmup percentage was hit.
system.cpu.icache.tags.occ_blocks::cpu.inst   436.249717                       # Average occupied blocks per requestor
system.cpu.icache.tags.occ_percent::cpu.inst     0.852050                       # Average percentage of cache occupancy
system.cpu.icache.tags.occ_percent::total     0.852050                       # Average percentage of cache occupancy
system.cpu.icache.tags.occ_task_id_blocks::1024          511                       # Occupied blocks per task id
system.cpu.icache.tags.age_task_id_blocks_1024::0            8                       # Occupied blocks per task id
system.cpu.icache.tags.age_task_id_blocks_1024::1          108                       # Occupied blocks per task id
system.cpu.icache.tags.age_task_id_blocks_1024::2           28                       # Occupied blocks per task id
system.cpu.icache.tags.age_task_id_blocks_1024::3           13                       # Occupied blocks per task id
system.cpu.icache.tags.age_task_id_blocks_1024::4          354                       # Occupied blocks per task id
system.cpu.icache.tags.occ_task_id_percent::1024     0.998047                       # Percentage of cache occupancy per task id
system.cpu.icache.tags.tag_accesses         678857944                       # Number of tag accesses
system.cpu.icache.tags.data_accesses        678857944                       # Number of data accesses
system.cpu.icache.pwrStateResidencyTicks::UNDEFINED 1753330020000                       # Cumulative time (in ticks) in various power states
system.cpu.icache.ReadReq_hits::cpu.inst    671849370                       # number of ReadReq hits
system.cpu.icache.ReadReq_hits::total       671849370                       # number of ReadReq hits
system.cpu.icache.demand_hits::cpu.inst     671849370                       # number of demand (read+write) hits
system.cpu.icache.demand_hits::total        671849370                       # number of demand (read+write) hits
system.cpu.icache.overall_hits::cpu.inst    671849370                       # number of overall hits
system.cpu.icache.overall_hits::total       671849370                       # number of overall hits
system.cpu.icache.ReadReq_misses::cpu.inst      3504287                       # number of ReadReq misses
system.cpu.icache.ReadReq_misses::total       3504287                       # number of ReadReq misses
system.cpu.icache.demand_misses::cpu.inst      3504287                       # number of demand (read+write) misses
system.cpu.icache.demand_misses::total        3504287                       # number of demand (read+write) misses
system.cpu.icache.overall_misses::cpu.inst      3504287                       # number of overall misses
system.cpu.icache.overall_misses::total       3504287                       # number of overall misses
system.cpu.icache.ReadReq_miss_latency::cpu.inst  46135933500                       # number of ReadReq miss cycles
system.cpu.icache.ReadReq_miss_latency::total  46135933500                       # number of ReadReq miss cycles
system.cpu.icache.demand_miss_latency::cpu.inst  46135933500                       # number of demand (read+write) miss cycles
system.cpu.icache.demand_miss_latency::total  46135933500                       # number of demand (read+write) miss cycles
system.cpu.icache.overall_miss_latency::cpu.inst  46135933500                       # number of overall miss cycles
system.cpu.icache.overall_miss_latency::total  46135933500                       # number of overall miss cycles
system.cpu.icache.ReadReq_accesses::cpu.inst    675353657                       # number of ReadReq accesses(hits+misses)
system.cpu.icache.ReadReq_accesses::total    675353657                       # number of ReadReq accesses(hits+misses)
system.cpu.icache.demand_accesses::cpu.inst    675353657                       # number of demand (read+write) accesses
system.cpu.icache.demand_accesses::total    675353657                       # number of demand (read+write) accesses
system.cpu.icache.overall_accesses::cpu.inst    675353657                       # number of overall (read+write) accesses
system.cpu.icache.overall_accesses::total    675353657                       # number of overall (read+write) accesses
system.cpu.icache.ReadReq_miss_rate::cpu.inst     0.005189                       # miss rate for ReadReq accesses
system.cpu.icache.ReadReq_miss_rate::total     0.005189                       # miss rate for ReadReq accesses
system.cpu.icache.demand_miss_rate::cpu.inst     0.005189                       # miss rate for demand accesses
system.cpu.icache.demand_miss_rate::total     0.005189                       # miss rate for demand accesses
system.cpu.icache.overall_miss_rate::cpu.inst     0.005189                       # miss rate for overall accesses
system.cpu.icache.overall_miss_rate::total     0.005189                       # miss rate for overall accesses
system.cpu.icache.ReadReq_avg_miss_latency::cpu.inst 13165.569344                       # average ReadReq miss latency
system.cpu.icache.ReadReq_avg_miss_latency::total 13165.569344                       # average ReadReq miss latency
system.cpu.icache.demand_avg_miss_latency::cpu.inst 13165.569344                       # average overall miss latency
system.cpu.icache.demand_avg_miss_latency::total 13165.569344                       # average overall miss latency
system.cpu.icache.overall_avg_miss_latency::cpu.inst 13165.569344                       # average overall miss latency
system.cpu.icache.overall_avg_miss_latency::total 13165.569344                       # average overall miss latency
system.cpu.icache.blocked_cycles::no_mshrs            0                       # number of cycles access was blocked
system.cpu.icache.blocked_cycles::no_targets            0                       # number of cycles access was blocked
system.cpu.icache.blocked::no_mshrs                 0                       # number of cycles access was blocked
system.cpu.icache.blocked::no_targets               0                       # number of cycles access was blocked
system.cpu.icache.avg_blocked_cycles::no_mshrs          nan                       # average number of cycles each access was blocked
system.cpu.icache.avg_blocked_cycles::no_targets          nan                       # average number of cycles each access was blocked
system.cpu.icache.writebacks::writebacks      3503776                       # number of writebacks
system.cpu.icache.writebacks::total           3503776                       # number of writebacks
system.cpu.icache.ReadReq_mshr_misses::cpu.inst      3504287                       # number of ReadReq MSHR misses
system.cpu.icache.ReadReq_mshr_misses::total      3504287                       # number of ReadReq MSHR misses
system.cpu.icache.demand_mshr_misses::cpu.inst      3504287                       # number of demand (read+write) MSHR misses
system.cpu.icache.demand_mshr_misses::total      3504287                       # number of demand (read+write) MSHR misses
system.cpu.icache.overall_mshr_misses::cpu.inst      3504287                       # number of overall MSHR misses
system.cpu.icache.overall_mshr_misses::total      3504287                       # number of overall MSHR misses
system.cpu.icache.ReadReq_mshr_miss_latency::cpu.inst  42631646500                       # number of ReadReq MSHR miss cycles
system.cpu.icache.ReadReq_mshr_miss_latency::total  42631646500                       # number of ReadReq MSHR miss cycles
system.cpu.icache.demand_mshr_miss_latency::cpu.inst  42631646500                       # number of demand (read+write) MSHR miss cycles
system.cpu.icache.demand_mshr_miss_latency::total  42631646500                       # number of demand (read+write) MSHR miss cycles
system.cpu.icache.overall_mshr_miss_latency::cpu.inst  42631646500                       # number of overall MSHR miss cycles
system.cpu.icache.overall_mshr_miss_latency::total  42631646500                       # number of overall MSHR miss cycles
system.cpu.icache.ReadReq_mshr_miss_rate::cpu.inst     0.005189                       # mshr miss rate for ReadReq accesses
system.cpu.icache.ReadReq_mshr_miss_rate::total     0.005189                       # mshr miss rate for ReadReq accesses
system.cpu.icache.demand_mshr_miss_rate::cpu.inst     0.005189                       # mshr miss rate for demand accesses
system.cpu.icache.demand_mshr_miss_rate::total     0.005189                       # mshr miss rate for demand accesses
system.cpu.icache.overall_mshr_miss_rate::cpu.inst     0.005189                       # mshr miss rate for overall accesses
system.cpu.icache.overall_mshr_miss_rate::total     0.005189                       # mshr miss rate for overall accesses
system.cpu.icache.ReadReq_avg_mshr_miss_latency::cpu.inst 12165.569344                       # average ReadReq mshr miss latency
system.cpu.icache.ReadReq_avg_mshr_miss_latency::total 12165.569344                       # average ReadReq mshr miss latency
system.cpu.icache.demand_avg_mshr_miss_latency::cpu.inst 12165.569344                       # average overall mshr miss latency
system.cpu.icache.demand_avg_mshr_miss_latency::total 12165.569344                       # average overall mshr miss latency
system.cpu.icache.overall_avg_mshr_miss_latency::cpu.inst 12165.569344                       # average overall mshr miss latency
system.cpu.icache.overall_avg_mshr_miss_latency::total 12165.569344                       # average overall mshr miss latency
system.cpu.itb_walker_cache.tags.pwrStateResidencyTicks::UNDEFINED 1753330020000                       # Cumulative time (in ticks) in various power states
system.cpu.itb_walker_cache.tags.replacements            0                       # number of replacements
system.cpu.itb_walker_cache.tags.tagsinuse            0                       # Cycle average of tags in use
system.cpu.itb_walker_cache.tags.total_refs            0                       # Total number of references to valid blocks.
system.cpu.itb_walker_cache.tags.sampled_refs            0                       # Sample count of references to valid blocks.
system.cpu.itb_walker_cache.tags.avg_refs          nan                       # Average number of references to valid blocks.
system.cpu.itb_walker_cache.tags.warmup_cycle            0                       # Cycle when the warmup percentage was hit.
system.cpu.itb_walker_cache.tags.tag_accesses            0                       # Number of tag accesses
system.cpu.itb_walker_cache.tags.data_accesses            0                       # Number of data accesses
system.cpu.itb_walker_cache.pwrStateResidencyTicks::UNDEFINED 1753330020000                       # Cumulative time (in ticks) in various power states
system.cpu.itb_walker_cache.blocked_cycles::no_mshrs            0                       # number of cycles access was blocked
system.cpu.itb_walker_cache.blocked_cycles::no_targets            0                       # number of cycles access was blocked
system.cpu.itb_walker_cache.blocked::no_mshrs            0                       # number of cycles access was blocked
system.cpu.itb_walker_cache.blocked::no_targets            0                       # number of cycles access was blocked
system.cpu.itb_walker_cache.avg_blocked_cycles::no_mshrs          nan                       # average number of cycles each access was blocked
system.cpu.itb_walker_cache.avg_blocked_cycles::no_targets          nan                       # average number of cycles each access was blocked
system.l2.tags.pwrStateResidencyTicks::UNDEFINED 1753330020000                       # Cumulative time (in ticks) in various power states
system.l2.tags.replacements                   8370731                       # number of replacements
system.l2.tags.tagsinuse                 16314.397828                       # Cycle average of tags in use
system.l2.tags.total_refs                    15984245                       # Total number of references to valid blocks.
system.l2.tags.sampled_refs                   8387115                       # Sample count of references to valid blocks.
system.l2.tags.avg_refs                      1.905810                       # Average number of references to valid blocks.
system.l2.tags.warmup_cycle                9594902000                       # Cycle when the warmup percentage was hit.
system.l2.tags.occ_blocks::writebacks      398.556434                       # Average occupied blocks per requestor
system.l2.tags.occ_blocks::cpu.inst        283.024952                       # Average occupied blocks per requestor
system.l2.tags.occ_blocks::cpu.data      15632.816442                       # Average occupied blocks per requestor
system.l2.tags.occ_percent::writebacks       0.024326                       # Average percentage of cache occupancy
system.l2.tags.occ_percent::cpu.inst         0.017274                       # Average percentage of cache occupancy
system.l2.tags.occ_percent::cpu.data         0.954151                       # Average percentage of cache occupancy
system.l2.tags.occ_percent::total            0.995752                       # Average percentage of cache occupancy
system.l2.tags.occ_task_id_blocks::1024         16384                       # Occupied blocks per task id
system.l2.tags.age_task_id_blocks_1024::1            5                       # Occupied blocks per task id
system.l2.tags.age_task_id_blocks_1024::2           92                       # Occupied blocks per task id
system.l2.tags.age_task_id_blocks_1024::3          884                       # Occupied blocks per task id
system.l2.tags.age_task_id_blocks_1024::4        15403                       # Occupied blocks per task id
system.l2.tags.occ_task_id_percent::1024            1                       # Percentage of cache occupancy per task id
system.l2.tags.tag_accesses                  57134071                       # Number of tag accesses
system.l2.tags.data_accesses                 57134071                       # Number of data accesses
system.l2.pwrStateResidencyTicks::UNDEFINED 1753330020000                       # Cumulative time (in ticks) in various power states
system.l2.WritebackDirty_hits::writebacks      8523891                       # number of WritebackDirty hits
system.l2.WritebackDirty_hits::total          8523891                       # number of WritebackDirty hits
system.l2.WritebackClean_hits::writebacks      3503776                       # number of WritebackClean hits
system.l2.WritebackClean_hits::total          3503776                       # number of WritebackClean hits
system.l2.ReadExReq_hits::cpu.data              66075                       # number of ReadExReq hits
system.l2.ReadExReq_hits::total                 66075                       # number of ReadExReq hits
system.l2.ReadCleanReq_hits::cpu.inst         3501075                       # number of ReadCleanReq hits
system.l2.ReadCleanReq_hits::total            3501075                       # number of ReadCleanReq hits
system.l2.ReadSharedReq_hits::cpu.data         240958                       # number of ReadSharedReq hits
system.l2.ReadSharedReq_hits::total            240958                       # number of ReadSharedReq hits
system.l2.demand_hits::cpu.inst               3501075                       # number of demand (read+write) hits
system.l2.demand_hits::cpu.data                307033                       # number of demand (read+write) hits
system.l2.demand_hits::total                  3808108                       # number of demand (read+write) hits
system.l2.overall_hits::cpu.inst              3501075                       # number of overall hits
system.l2.overall_hits::cpu.data               307033                       # number of overall hits
system.l2.overall_hits::total                 3808108                       # number of overall hits
system.l2.ReadExReq_misses::cpu.data          8295149                       # number of ReadExReq misses
system.l2.ReadExReq_misses::total             8295149                       # number of ReadExReq misses
system.l2.ReadCleanReq_misses::cpu.inst          3212                       # number of ReadCleanReq misses
system.l2.ReadCleanReq_misses::total             3212                       # number of ReadCleanReq misses
system.l2.ReadSharedReq_misses::cpu.data        81550                       # number of ReadSharedReq misses
system.l2.ReadSharedReq_misses::total           81550                       # number of ReadSharedReq misses
system.l2.demand_misses::cpu.inst                3212                       # number of demand (read+write) misses
system.l2.demand_misses::cpu.data             8376699                       # number of demand (read+write) misses
system.l2.demand_misses::total                8379911                       # number of demand (read+write) misses
system.l2.overall_misses::cpu.inst               3212                       # number of overall misses
system.l2.overall_misses::cpu.data            8376699                       # number of overall misses
system.l2.overall_misses::total               8379911                       # number of overall misses
system.l2.ReadExReq_miss_latency::cpu.data 720254838500                       # number of ReadExReq miss cycles
system.l2.ReadExReq_miss_latency::total  720254838500                       # number of ReadExReq miss cycles
system.l2.ReadCleanReq_miss_latency::cpu.inst    558249500                       # number of ReadCleanReq miss cycles
system.l2.ReadCleanReq_miss_latency::total    558249500                       # number of ReadCleanReq miss cycles
system.l2.ReadSharedReq_miss_latency::cpu.data  27164196000                       # number of ReadSharedReq miss cycles
system.l2.ReadSharedReq_miss_latency::total  27164196000                       # number of ReadSharedReq miss cycles
system.l2.demand_miss_latency::cpu.inst     558249500                       # number of demand (read+write) miss cycles
system.l2.demand_miss_latency::cpu.data  747419034500                       # number of demand (read+write) miss cycles
system.l2.demand_miss_latency::total     747977284000                       # number of demand (read+write) miss cycles
system.l2.overall_miss_latency::cpu.inst    558249500                       # number of overall miss cycles
system.l2.overall_miss_latency::cpu.data 747419034500                       # number of overall miss cycles
system.l2.overall_miss_latency::total    747977284000                       # number of overall miss cycles
system.l2.WritebackDirty_accesses::writebacks      8523891                       # number of WritebackDirty accesses(hits+misses)
system.l2.WritebackDirty_accesses::total      8523891                       # number of WritebackDirty accesses(hits+misses)
system.l2.WritebackClean_accesses::writebacks      3503776                       # number of WritebackClean accesses(hits+misses)
system.l2.WritebackClean_accesses::total      3503776                       # number of WritebackClean accesses(hits+misses)
system.l2.ReadExReq_accesses::cpu.data        8361224                       # number of ReadExReq accesses(hits+misses)
system.l2.ReadExReq_accesses::total           8361224                       # number of ReadExReq accesses(hits+misses)
system.l2.ReadCleanReq_accesses::cpu.inst      3504287                       # number of ReadCleanReq accesses(hits+misses)
system.l2.ReadCleanReq_accesses::total        3504287                       # number of ReadCleanReq accesses(hits+misses)
system.l2.ReadSharedReq_accesses::cpu.data       322508                       # number of ReadSharedReq accesses(hits+misses)
system.l2.ReadSharedReq_accesses::total        322508                       # number of ReadSharedReq accesses(hits+misses)
system.l2.demand_accesses::cpu.inst           3504287                       # number of demand (read+write) accesses
system.l2.demand_accesses::cpu.data           8683732                       # number of demand (read+write) accesses
system.l2.demand_accesses::total             12188019                       # number of demand (read+write) accesses
system.l2.overall_accesses::cpu.inst          3504287                       # number of overall (read+write) accesses
system.l2.overall_accesses::cpu.data          8683732                       # number of overall (read+write) accesses
system.l2.overall_accesses::total            12188019                       # number of overall (read+write) accesses
system.l2.ReadExReq_miss_rate::cpu.data      0.992097                       # miss rate for ReadExReq accesses
system.l2.ReadExReq_miss_rate::total         0.992097                       # miss rate for ReadExReq accesses
system.l2.ReadCleanReq_miss_rate::cpu.inst     0.000917                       # miss rate for ReadCleanReq accesses
system.l2.ReadCleanReq_miss_rate::total      0.000917                       # miss rate for ReadCleanReq accesses
system.l2.ReadSharedReq_miss_rate::cpu.data     0.252862                       # miss rate for ReadSharedReq accesses
system.l2.ReadSharedReq_miss_rate::total     0.252862                       # miss rate for ReadSharedReq accesses
system.l2.demand_miss_rate::cpu.inst         0.000917                       # miss rate for demand accesses
system.l2.demand_miss_rate::cpu.data         0.964643                       # miss rate for demand accesses
system.l2.demand_miss_rate::total            0.687553                       # miss rate for demand accesses
system.l2.overall_miss_rate::cpu.inst        0.000917                       # miss rate for overall accesses
system.l2.overall_miss_rate::cpu.data        0.964643                       # miss rate for overall accesses
system.l2.overall_miss_rate::total           0.687553                       # miss rate for overall accesses
system.l2.ReadExReq_avg_miss_latency::cpu.data 86828.438947                       # average ReadExReq miss latency
system.l2.ReadExReq_avg_miss_latency::total 86828.438947                       # average ReadExReq miss latency
system.l2.ReadCleanReq_avg_miss_latency::cpu.inst 173801.214197                       # average ReadCleanReq miss latency
system.l2.ReadCleanReq_avg_miss_latency::total 173801.214197                       # average ReadCleanReq miss latency
system.l2.ReadSharedReq_avg_miss_latency::cpu.data 333098.663397                       # average ReadSharedReq miss latency
system.l2.ReadSharedReq_avg_miss_latency::total 333098.663397                       # average ReadSharedReq miss latency
system.l2.demand_avg_miss_latency::cpu.inst 173801.214197                       # average overall miss latency
system.l2.demand_avg_miss_latency::cpu.data 89225.962936                       # average overall miss latency
system.l2.demand_avg_miss_latency::total 89258.380429                       # average overall miss latency
system.l2.overall_avg_miss_latency::cpu.inst 173801.214197                       # average overall miss latency
system.l2.overall_avg_miss_latency::cpu.data 89225.962936                       # average overall miss latency
system.l2.overall_avg_miss_latency::total 89258.380429                       # average overall miss latency
system.l2.blocked_cycles::no_mshrs                  0                       # number of cycles access was blocked
system.l2.blocked_cycles::no_targets                0                       # number of cycles access was blocked
system.l2.blocked::no_mshrs                         0                       # number of cycles access was blocked
system.l2.blocked::no_targets                       0                       # number of cycles access was blocked
system.l2.avg_blocked_cycles::no_mshrs            nan                       # average number of cycles each access was blocked
system.l2.avg_blocked_cycles::no_targets          nan                       # average number of cycles each access was blocked
system.l2.writebacks::writebacks              8346047                       # number of writebacks
system.l2.writebacks::total                   8346047                       # number of writebacks
system.l2.CleanEvict_mshr_misses::writebacks         2118                       # number of CleanEvict MSHR misses
system.l2.CleanEvict_mshr_misses::total          2118                       # number of CleanEvict MSHR misses
system.l2.ReadExReq_mshr_misses::cpu.data      8295149                       # number of ReadExReq MSHR misses
system.l2.ReadExReq_mshr_misses::total        8295149                       # number of ReadExReq MSHR misses
system.l2.ReadCleanReq_mshr_misses::cpu.inst         3212                       # number of ReadCleanReq MSHR misses
system.l2.ReadCleanReq_mshr_misses::total         3212                       # number of ReadCleanReq MSHR misses
system.l2.ReadSharedReq_mshr_misses::cpu.data        81550                       # number of ReadSharedReq MSHR misses
system.l2.ReadSharedReq_mshr_misses::total        81550                       # number of ReadSharedReq MSHR misses
system.l2.demand_mshr_misses::cpu.inst           3212                       # number of demand (read+write) MSHR misses
system.l2.demand_mshr_misses::cpu.data        8376699                       # number of demand (read+write) MSHR misses
system.l2.demand_mshr_misses::total           8379911                       # number of demand (read+write) MSHR misses
system.l2.overall_mshr_misses::cpu.inst          3212                       # number of overall MSHR misses
system.l2.overall_mshr_misses::cpu.data       8376699                       # number of overall MSHR misses
system.l2.overall_mshr_misses::total          8379911                       # number of overall MSHR misses
system.l2.ReadExReq_mshr_miss_latency::cpu.data 637303348500                       # number of ReadExReq MSHR miss cycles
system.l2.ReadExReq_mshr_miss_latency::total 637303348500                       # number of ReadExReq MSHR miss cycles
system.l2.ReadCleanReq_mshr_miss_latency::cpu.inst    526129500                       # number of ReadCleanReq MSHR miss cycles
system.l2.ReadCleanReq_mshr_miss_latency::total    526129500                       # number of ReadCleanReq MSHR miss cycles
system.l2.ReadSharedReq_mshr_miss_latency::cpu.data  26348696000                       # number of ReadSharedReq MSHR miss cycles
system.l2.ReadSharedReq_mshr_miss_latency::total  26348696000                       # number of ReadSharedReq MSHR miss cycles
system.l2.demand_mshr_miss_latency::cpu.inst    526129500                       # number of demand (read+write) MSHR miss cycles
system.l2.demand_mshr_miss_latency::cpu.data 663652044500                       # number of demand (read+write) MSHR miss cycles
system.l2.demand_mshr_miss_latency::total 664178174000                       # number of demand (read+write) MSHR miss cycles
system.l2.overall_mshr_miss_latency::cpu.inst    526129500                       # number of overall MSHR miss cycles
system.l2.overall_mshr_miss_latency::cpu.data 663652044500                       # number of overall MSHR miss cycles
system.l2.overall_mshr_miss_latency::total 664178174000                       # number of overall MSHR miss cycles
system.l2.CleanEvict_mshr_miss_rate::writebacks          inf                       # mshr miss rate for CleanEvict accesses
system.l2.CleanEvict_mshr_miss_rate::total          inf                       # mshr miss rate for CleanEvict accesses
system.l2.ReadExReq_mshr_miss_rate::cpu.data     0.992097                       # mshr miss rate for ReadExReq accesses
system.l2.ReadExReq_mshr_miss_rate::total     0.992097                       # mshr miss rate for ReadExReq accesses
system.l2.ReadCleanReq_mshr_miss_rate::cpu.inst     0.000917                       # mshr miss rate for ReadCleanReq accesses
system.l2.ReadCleanReq_mshr_miss_rate::total     0.000917                       # mshr miss rate for ReadCleanReq accesses
system.l2.ReadSharedReq_mshr_miss_rate::cpu.data     0.252862                       # mshr miss rate for ReadSharedReq accesses
system.l2.ReadSharedReq_mshr_miss_rate::total     0.252862                       # mshr miss rate for ReadSharedReq accesses
system.l2.demand_mshr_miss_rate::cpu.inst     0.000917                       # mshr miss rate for demand accesses
system.l2.demand_mshr_miss_rate::cpu.data     0.964643                       # mshr miss rate for demand accesses
system.l2.demand_mshr_miss_rate::total       0.687553                       # mshr miss rate for demand accesses
system.l2.overall_mshr_miss_rate::cpu.inst     0.000917                       # mshr miss rate for overall accesses
system.l2.overall_mshr_miss_rate::cpu.data     0.964643                       # mshr miss rate for overall accesses
system.l2.overall_mshr_miss_rate::total      0.687553                       # mshr miss rate for overall accesses
system.l2.ReadExReq_avg_mshr_miss_latency::cpu.data 76828.438947                       # average ReadExReq mshr miss latency
system.l2.ReadExReq_avg_mshr_miss_latency::total 76828.438947                       # average ReadExReq mshr miss latency
system.l2.ReadCleanReq_avg_mshr_miss_latency::cpu.inst 163801.214197                       # average ReadCleanReq mshr miss latency
system.l2.ReadCleanReq_avg_mshr_miss_latency::total 163801.214197                       # average ReadCleanReq mshr miss latency
system.l2.ReadSharedReq_avg_mshr_miss_latency::cpu.data 323098.663397                       # average ReadSharedReq mshr miss latency
system.l2.ReadSharedReq_avg_mshr_miss_latency::total 323098.663397                       # average ReadSharedReq mshr miss latency
system.l2.demand_avg_mshr_miss_latency::cpu.inst 163801.214197                       # average overall mshr miss latency
system.l2.demand_avg_mshr_miss_latency::cpu.data 79225.962936                       # average overall mshr miss latency
system.l2.demand_avg_mshr_miss_latency::total 79258.380429                       # average overall mshr miss latency
system.l2.overall_avg_mshr_miss_latency::cpu.inst 163801.214197                       # average overall mshr miss latency
system.l2.overall_avg_mshr_miss_latency::cpu.data 79225.962936                       # average overall mshr miss latency
system.l2.overall_avg_mshr_miss_latency::total 79258.380429                       # average overall mshr miss latency
system.membus.snoop_filter.tot_requests      16743185                       # Total number of requests made to the snoop filter.
system.membus.snoop_filter.hit_single_requests      8363274                       # Number of requests hitting in the snoop filter with a single holder of the requested data.
system.membus.snoop_filter.hit_multi_requests            0                       # Number of requests hitting in the snoop filter with multiple (>1) holders of the requested data.
system.membus.snoop_filter.tot_snoops               0                       # Total number of snoops made to the snoop filter.
system.membus.snoop_filter.hit_single_snoops            0                       # Number of snoops hitting in the snoop filter with a single holder of the requested data.
system.membus.snoop_filter.hit_multi_snoops            0                       # Number of snoops hitting in the snoop filter with multiple (>1) holders of the requested data.
system.membus.pwrStateResidencyTicks::UNDEFINED 1753330020000                       # Cumulative time (in ticks) in various power states
system.membus.trans_dist::ReadResp              84762                       # Transaction distribution
system.membus.trans_dist::WritebackDirty      8346047                       # Transaction distribution
system.membus.trans_dist::CleanEvict            17227                       # Transaction distribution
system.membus.trans_dist::ReadExReq           8295149                       # Transaction distribution
system.membus.trans_dist::ReadExResp          8295149                       # Transaction distribution
system.membus.trans_dist::ReadSharedReq         84762                       # Transaction distribution
system.membus.pkt_count_system.l2.mem_side::system.mem_ctrls.port     25123096                       # Packet count per connected master and slave (bytes)
system.membus.pkt_count_system.l2.mem_side::total     25123096                       # Packet count per connected master and slave (bytes)
system.membus.pkt_count::total               25123096                       # Packet count per connected master and slave (bytes)
system.membus.pkt_size_system.l2.mem_side::system.mem_ctrls.port   1070461312                       # Cumulative packet size per connected master and slave (bytes)
system.membus.pkt_size_system.l2.mem_side::total   1070461312                       # Cumulative packet size per connected master and slave (bytes)
system.membus.pkt_size::total              1070461312                       # Cumulative packet size per connected master and slave (bytes)
system.membus.snoops                                0                       # Total snoops (count)
system.membus.snoopTraffic                          0                       # Total snoop traffic (bytes)
system.membus.snoop_fanout::samples           8379911                       # Request fanout histogram
system.membus.snoop_fanout::mean                    0                       # Request fanout histogram
system.membus.snoop_fanout::stdev                   0                       # Request fanout histogram
system.membus.snoop_fanout::underflows              0      0.00%      0.00% # Request fanout histogram
system.membus.snoop_fanout::0                 8379911    100.00%    100.00% # Request fanout histogram
system.membus.snoop_fanout::1                       0      0.00%    100.00% # Request fanout histogram
system.membus.snoop_fanout::overflows               0      0.00%    100.00% # Request fanout histogram
system.membus.snoop_fanout::min_value               0                       # Request fanout histogram
system.membus.snoop_fanout::max_value               0                       # Request fanout histogram
system.membus.snoop_fanout::total             8379911                       # Request fanout histogram
system.membus.reqLayer2.occupancy         50142187500                       # Layer occupancy (ticks)
system.membus.reqLayer2.utilization               2.9                       # Layer utilization (%)
system.membus.respLayer1.occupancy        44091421250                       # Layer occupancy (ticks)
system.membus.respLayer1.utilization              2.5                       # Layer utilization (%)
system.tol2bus.snoop_filter.tot_requests     24373479                       # Total number of requests made to the snoop filter.
system.tol2bus.snoop_filter.hit_single_requests     12185460                       # Number of requests hitting in the snoop filter with a single holder of the requested data.
system.tol2bus.snoop_filter.hit_multi_requests            1                       # Number of requests hitting in the snoop filter with multiple (>1) holders of the requested data.
system.tol2bus.snoop_filter.tot_snoops           9575                       # Total number of snoops made to the snoop filter.
system.tol2bus.snoop_filter.hit_single_snoops         9575                       # Number of snoops hitting in the snoop filter with a single holder of the requested data.
system.tol2bus.snoop_filter.hit_multi_snoops            0                       # Number of snoops hitting in the snoop filter with multiple (>1) holders of the requested data.
system.tol2bus.pwrStateResidencyTicks::UNDEFINED 1753330020000                       # Cumulative time (in ticks) in various power states
system.tol2bus.trans_dist::ReadResp           3826795                       # Transaction distribution
system.tol2bus.trans_dist::WritebackDirty     16869938                       # Transaction distribution
system.tol2bus.trans_dist::WritebackClean      3503776                       # Transaction distribution
system.tol2bus.trans_dist::CleanEvict          182477                       # Transaction distribution
system.tol2bus.trans_dist::ReadExReq          8361224                       # Transaction distribution
system.tol2bus.trans_dist::ReadExResp         8361224                       # Transaction distribution
system.tol2bus.trans_dist::ReadCleanReq       3504287                       # Transaction distribution
system.tol2bus.trans_dist::ReadSharedReq       322508                       # Transaction distribution
system.tol2bus.pkt_count_system.cpu.icache.mem_side::system.l2.cpu_side     10512350                       # Packet count per connected master and slave (bytes)
system.tol2bus.pkt_count_system.cpu.dcache.mem_side::system.l2.cpu_side     26049148                       # Packet count per connected master and slave (bytes)
system.tol2bus.pkt_count::total              36561498                       # Packet count per connected master and slave (bytes)
system.tol2bus.pkt_size_system.cpu.icache.mem_side::system.l2.cpu_side    448516032                       # Cumulative packet size per connected master and slave (bytes)
system.tol2bus.pkt_size_system.cpu.dcache.mem_side::system.l2.cpu_side   1101287872                       # Cumulative packet size per connected master and slave (bytes)
system.tol2bus.pkt_size::total             1549803904                       # Cumulative packet size per connected master and slave (bytes)
system.tol2bus.snoops                         8370731                       # Total snoops (count)
system.tol2bus.snoopTraffic                 534147008                       # Total snoop traffic (bytes)
system.tol2bus.snoop_fanout::samples         20558750                       # Request fanout histogram
system.tol2bus.snoop_fanout::mean            0.000466                       # Request fanout histogram
system.tol2bus.snoop_fanout::stdev           0.021577                       # Request fanout histogram
system.tol2bus.snoop_fanout::underflows             0      0.00%      0.00% # Request fanout histogram
system.tol2bus.snoop_fanout::0               20549174     99.95%     99.95% # Request fanout histogram
system.tol2bus.snoop_fanout::1                   9576      0.05%    100.00% # Request fanout histogram
system.tol2bus.snoop_fanout::2                      0      0.00%    100.00% # Request fanout histogram
system.tol2bus.snoop_fanout::3                      0      0.00%    100.00% # Request fanout histogram
system.tol2bus.snoop_fanout::4                      0      0.00%    100.00% # Request fanout histogram
system.tol2bus.snoop_fanout::overflows              0      0.00%    100.00% # Request fanout histogram
system.tol2bus.snoop_fanout::min_value              0                       # Request fanout histogram
system.tol2bus.snoop_fanout::max_value              1                       # Request fanout histogram
system.tol2bus.snoop_fanout::total           20558750                       # Request fanout histogram
system.tol2bus.reqLayer0.occupancy        24214406500                       # Layer occupancy (ticks)
system.tol2bus.reqLayer0.utilization              1.4                       # Layer utilization (%)
system.tol2bus.respLayer0.occupancy        5256430500                       # Layer occupancy (ticks)
system.tol2bus.respLayer0.utilization             0.3                       # Layer utilization (%)
system.tol2bus.respLayer1.occupancy       13025598000                       # Layer occupancy (ticks)
system.tol2bus.respLayer1.utilization             0.7                       # Layer utilization (%)

---------- End Simulation Statistics   ----------
