
---------- Begin Simulation Statistics ----------
sim_seconds                                  0.957877                       # Number of seconds simulated
sim_ticks                                957877029500                       # Number of ticks simulated
final_tick                               957877029500                       # Number of ticks from beginning of simulation (restored from checkpoints and never reset)
sim_freq                                 1000000000000                       # Frequency of simulated ticks
host_inst_rate                                 606301                       # Simulator instruction rate (inst/s)
host_op_rate                                   781862                       # Simulator op (including micro ops) rate (op/s)
host_tick_rate                             1161522808                       # Simulator tick rate (ticks/s)
host_mem_usage                                 669408                       # Number of bytes of host memory used
host_seconds                                   824.67                       # Real time elapsed on the host
sim_insts                                   500000000                       # Number of instructions simulated
sim_ops                                     644780824                       # Number of ops (including micro ops) simulated
system.voltage_domain.voltage                       1                       # Voltage in Volts
system.clk_domain.clock                          1000                       # Clock period in ticks
system.mem_ctrls.pwrStateResidencyTicks::UNDEFINED 957877029500                       # Cumulative time (in ticks) in various power states
system.mem_ctrls.bytes_read::cpu.inst          112480                       # Number of bytes read from this memory
system.mem_ctrls.bytes_read::cpu.data          305184                       # Number of bytes read from this memory
system.mem_ctrls.bytes_read::total             417664                       # Number of bytes read from this memory
system.mem_ctrls.bytes_inst_read::cpu.inst       112480                       # Number of instructions bytes read from this memory
system.mem_ctrls.bytes_inst_read::total        112480                       # Number of instructions bytes read from this memory
system.mem_ctrls.bytes_written::writebacks        13280                       # Number of bytes written to this memory
system.mem_ctrls.bytes_written::total           13280                       # Number of bytes written to this memory
system.mem_ctrls.num_reads::cpu.inst             3515                       # Number of read requests responded to by this memory
system.mem_ctrls.num_reads::cpu.data             9537                       # Number of read requests responded to by this memory
system.mem_ctrls.num_reads::total               13052                       # Number of read requests responded to by this memory
system.mem_ctrls.num_writes::writebacks           415                       # Number of write requests responded to by this memory
system.mem_ctrls.num_writes::total                415                       # Number of write requests responded to by this memory
system.mem_ctrls.bw_read::cpu.inst             117426                       # Total read bandwidth from this memory (bytes/s)
system.mem_ctrls.bw_read::cpu.data             318605                       # Total read bandwidth from this memory (bytes/s)
system.mem_ctrls.bw_read::total                436031                       # Total read bandwidth from this memory (bytes/s)
system.mem_ctrls.bw_inst_read::cpu.inst        117426                       # Instruction read bandwidth from this memory (bytes/s)
system.mem_ctrls.bw_inst_read::total           117426                       # Instruction read bandwidth from this memory (bytes/s)
system.mem_ctrls.bw_write::writebacks           13864                       # Write bandwidth from this memory (bytes/s)
system.mem_ctrls.bw_write::total                13864                       # Write bandwidth from this memory (bytes/s)
system.mem_ctrls.bw_total::writebacks           13864                       # Total bandwidth to/from this memory (bytes/s)
system.mem_ctrls.bw_total::cpu.inst            117426                       # Total bandwidth to/from this memory (bytes/s)
system.mem_ctrls.bw_total::cpu.data            318605                       # Total bandwidth to/from this memory (bytes/s)
system.mem_ctrls.bw_total::total               449895                       # Total bandwidth to/from this memory (bytes/s)
system.mem_ctrls.readReqs                       13052                       # Number of read requests accepted
system.mem_ctrls.writeReqs                        415                       # Number of write requests accepted
system.mem_ctrls.readBursts                     13052                       # Number of DRAM read bursts, including those serviced by the write queue
system.mem_ctrls.writeBursts                      415                       # Number of DRAM write bursts, including those merged in the write queue
system.mem_ctrls.bytesReadDRAM                 822656                       # Total number of bytes read from DRAM
system.mem_ctrls.bytesReadWrQ                   12672                       # Total number of bytes read from write queue
system.mem_ctrls.bytesWritten                       0                       # Total number of bytes written to DRAM
system.mem_ctrls.bytesReadSys                  417664                       # Total read bytes from the system interface side
system.mem_ctrls.bytesWrittenSys                13280                       # Total written bytes from the system interface side
system.mem_ctrls.servicedByWrQ                    198                       # Number of DRAM read bursts serviced by the write queue
system.mem_ctrls.mergedWrBursts                   388                       # Number of DRAM write bursts merged with an existing one
system.mem_ctrls.neitherReadNorWriteReqs            0                       # Number of requests that are neither read nor write
system.mem_ctrls.perBankRdBursts::0               611                       # Per bank write bursts
system.mem_ctrls.perBankRdBursts::1               674                       # Per bank write bursts
system.mem_ctrls.perBankRdBursts::2               799                       # Per bank write bursts
system.mem_ctrls.perBankRdBursts::3               610                       # Per bank write bursts
system.mem_ctrls.perBankRdBursts::4              2224                       # Per bank write bursts
system.mem_ctrls.perBankRdBursts::5               770                       # Per bank write bursts
system.mem_ctrls.perBankRdBursts::6               660                       # Per bank write bursts
system.mem_ctrls.perBankRdBursts::7               801                       # Per bank write bursts
system.mem_ctrls.perBankRdBursts::8               713                       # Per bank write bursts
system.mem_ctrls.perBankRdBursts::9               714                       # Per bank write bursts
system.mem_ctrls.perBankRdBursts::10              820                       # Per bank write bursts
system.mem_ctrls.perBankRdBursts::11              899                       # Per bank write bursts
system.mem_ctrls.perBankRdBursts::12              702                       # Per bank write bursts
system.mem_ctrls.perBankRdBursts::13              628                       # Per bank write bursts
system.mem_ctrls.perBankRdBursts::14              607                       # Per bank write bursts
system.mem_ctrls.perBankRdBursts::15              622                       # Per bank write bursts
system.mem_ctrls.perBankWrBursts::0                 0                       # Per bank write bursts
system.mem_ctrls.perBankWrBursts::1                 0                       # Per bank write bursts
system.mem_ctrls.perBankWrBursts::2                 0                       # Per bank write bursts
system.mem_ctrls.perBankWrBursts::3                 0                       # Per bank write bursts
system.mem_ctrls.perBankWrBursts::4                 0                       # Per bank write bursts
system.mem_ctrls.perBankWrBursts::5                 0                       # Per bank write bursts
system.mem_ctrls.perBankWrBursts::6                 0                       # Per bank write bursts
system.mem_ctrls.perBankWrBursts::7                 0                       # Per bank write bursts
system.mem_ctrls.perBankWrBursts::8                 0                       # Per bank write bursts
system.mem_ctrls.perBankWrBursts::9                 0                       # Per bank write bursts
system.mem_ctrls.perBankWrBursts::10                0                       # Per bank write bursts
system.mem_ctrls.perBankWrBursts::11                0                       # Per bank write bursts
system.mem_ctrls.perBankWrBursts::12                0                       # Per bank write bursts
system.mem_ctrls.perBankWrBursts::13                0                       # Per bank write bursts
system.mem_ctrls.perBankWrBursts::14                0                       # Per bank write bursts
system.mem_ctrls.perBankWrBursts::15                0                       # Per bank write bursts
system.mem_ctrls.numRdRetry                         0                       # Number of times read queue was full causing retry
system.mem_ctrls.numWrRetry                         0                       # Number of times write queue was full causing retry
system.mem_ctrls.totGap                  955029585500                       # Total gap between requests
system.mem_ctrls.readPktSize::0                     0                       # Read request sizes (log2)
system.mem_ctrls.readPktSize::1                     0                       # Read request sizes (log2)
system.mem_ctrls.readPktSize::2                     0                       # Read request sizes (log2)
system.mem_ctrls.readPktSize::3                     0                       # Read request sizes (log2)
system.mem_ctrls.readPktSize::4                     0                       # Read request sizes (log2)
system.mem_ctrls.readPktSize::5                 13052                       # Read request sizes (log2)
system.mem_ctrls.readPktSize::6                     0                       # Read request sizes (log2)
system.mem_ctrls.writePktSize::0                    0                       # Write request sizes (log2)
system.mem_ctrls.writePktSize::1                    0                       # Write request sizes (log2)
system.mem_ctrls.writePktSize::2                    0                       # Write request sizes (log2)
system.mem_ctrls.writePktSize::3                    0                       # Write request sizes (log2)
system.mem_ctrls.writePktSize::4                    0                       # Write request sizes (log2)
system.mem_ctrls.writePktSize::5                  415                       # Write request sizes (log2)
system.mem_ctrls.writePktSize::6                    0                       # Write request sizes (log2)
system.mem_ctrls.rdQLenPdf::0                   12369                       # What read queue length does an incoming req see
system.mem_ctrls.rdQLenPdf::1                     244                       # What read queue length does an incoming req see
system.mem_ctrls.rdQLenPdf::2                     238                       # What read queue length does an incoming req see
system.mem_ctrls.rdQLenPdf::3                       3                       # What read queue length does an incoming req see
system.mem_ctrls.rdQLenPdf::4                       0                       # What read queue length does an incoming req see
system.mem_ctrls.rdQLenPdf::5                       0                       # What read queue length does an incoming req see
system.mem_ctrls.rdQLenPdf::6                       0                       # What read queue length does an incoming req see
system.mem_ctrls.rdQLenPdf::7                       0                       # What read queue length does an incoming req see
system.mem_ctrls.rdQLenPdf::8                       0                       # What read queue length does an incoming req see
system.mem_ctrls.rdQLenPdf::9                       0                       # What read queue length does an incoming req see
system.mem_ctrls.rdQLenPdf::10                      0                       # What read queue length does an incoming req see
system.mem_ctrls.rdQLenPdf::11                      0                       # What read queue length does an incoming req see
system.mem_ctrls.rdQLenPdf::12                      0                       # What read queue length does an incoming req see
system.mem_ctrls.rdQLenPdf::13                      0                       # What read queue length does an incoming req see
system.mem_ctrls.rdQLenPdf::14                      0                       # What read queue length does an incoming req see
system.mem_ctrls.rdQLenPdf::15                      0                       # What read queue length does an incoming req see
system.mem_ctrls.rdQLenPdf::16                      0                       # What read queue length does an incoming req see
system.mem_ctrls.rdQLenPdf::17                      0                       # What read queue length does an incoming req see
system.mem_ctrls.rdQLenPdf::18                      0                       # What read queue length does an incoming req see
system.mem_ctrls.rdQLenPdf::19                      0                       # What read queue length does an incoming req see
system.mem_ctrls.rdQLenPdf::20                      0                       # What read queue length does an incoming req see
system.mem_ctrls.rdQLenPdf::21                      0                       # What read queue length does an incoming req see
system.mem_ctrls.rdQLenPdf::22                      0                       # What read queue length does an incoming req see
system.mem_ctrls.rdQLenPdf::23                      0                       # What read queue length does an incoming req see
system.mem_ctrls.rdQLenPdf::24                      0                       # What read queue length does an incoming req see
system.mem_ctrls.rdQLenPdf::25                      0                       # What read queue length does an incoming req see
system.mem_ctrls.rdQLenPdf::26                      0                       # What read queue length does an incoming req see
system.mem_ctrls.rdQLenPdf::27                      0                       # What read queue length does an incoming req see
system.mem_ctrls.rdQLenPdf::28                      0                       # What read queue length does an incoming req see
system.mem_ctrls.rdQLenPdf::29                      0                       # What read queue length does an incoming req see
system.mem_ctrls.rdQLenPdf::30                      0                       # What read queue length does an incoming req see
system.mem_ctrls.rdQLenPdf::31                      0                       # What read queue length does an incoming req see
system.mem_ctrls.wrQLenPdf::0                       1                       # What write queue length does an incoming req see
system.mem_ctrls.wrQLenPdf::1                       1                       # What write queue length does an incoming req see
system.mem_ctrls.wrQLenPdf::2                       1                       # What write queue length does an incoming req see
system.mem_ctrls.wrQLenPdf::3                       1                       # What write queue length does an incoming req see
system.mem_ctrls.wrQLenPdf::4                       1                       # What write queue length does an incoming req see
system.mem_ctrls.wrQLenPdf::5                       1                       # What write queue length does an incoming req see
system.mem_ctrls.wrQLenPdf::6                       1                       # What write queue length does an incoming req see
system.mem_ctrls.wrQLenPdf::7                       1                       # What write queue length does an incoming req see
system.mem_ctrls.wrQLenPdf::8                       1                       # What write queue length does an incoming req see
system.mem_ctrls.wrQLenPdf::9                       1                       # What write queue length does an incoming req see
system.mem_ctrls.wrQLenPdf::10                      1                       # What write queue length does an incoming req see
system.mem_ctrls.wrQLenPdf::11                      1                       # What write queue length does an incoming req see
system.mem_ctrls.wrQLenPdf::12                      1                       # What write queue length does an incoming req see
system.mem_ctrls.wrQLenPdf::13                      1                       # What write queue length does an incoming req see
system.mem_ctrls.wrQLenPdf::14                      1                       # What write queue length does an incoming req see
system.mem_ctrls.wrQLenPdf::15                      1                       # What write queue length does an incoming req see
system.mem_ctrls.wrQLenPdf::16                      1                       # What write queue length does an incoming req see
system.mem_ctrls.wrQLenPdf::17                      1                       # What write queue length does an incoming req see
system.mem_ctrls.wrQLenPdf::18                      1                       # What write queue length does an incoming req see
system.mem_ctrls.wrQLenPdf::19                      1                       # What write queue length does an incoming req see
system.mem_ctrls.wrQLenPdf::20                      1                       # What write queue length does an incoming req see
system.mem_ctrls.wrQLenPdf::21                      1                       # What write queue length does an incoming req see
system.mem_ctrls.wrQLenPdf::22                      1                       # What write queue length does an incoming req see
system.mem_ctrls.wrQLenPdf::23                      1                       # What write queue length does an incoming req see
system.mem_ctrls.wrQLenPdf::24                      1                       # What write queue length does an incoming req see
system.mem_ctrls.wrQLenPdf::25                      1                       # What write queue length does an incoming req see
system.mem_ctrls.wrQLenPdf::26                      1                       # What write queue length does an incoming req see
system.mem_ctrls.wrQLenPdf::27                      0                       # What write queue length does an incoming req see
system.mem_ctrls.wrQLenPdf::28                      0                       # What write queue length does an incoming req see
system.mem_ctrls.wrQLenPdf::29                      0                       # What write queue length does an incoming req see
system.mem_ctrls.wrQLenPdf::30                      0                       # What write queue length does an incoming req see
system.mem_ctrls.wrQLenPdf::31                      0                       # What write queue length does an incoming req see
system.mem_ctrls.wrQLenPdf::32                      0                       # What write queue length does an incoming req see
system.mem_ctrls.wrQLenPdf::33                      0                       # What write queue length does an incoming req see
system.mem_ctrls.wrQLenPdf::34                      0                       # What write queue length does an incoming req see
system.mem_ctrls.wrQLenPdf::35                      0                       # What write queue length does an incoming req see
system.mem_ctrls.wrQLenPdf::36                      0                       # What write queue length does an incoming req see
system.mem_ctrls.wrQLenPdf::37                      0                       # What write queue length does an incoming req see
system.mem_ctrls.wrQLenPdf::38                      0                       # What write queue length does an incoming req see
system.mem_ctrls.wrQLenPdf::39                      0                       # What write queue length does an incoming req see
system.mem_ctrls.wrQLenPdf::40                      0                       # What write queue length does an incoming req see
system.mem_ctrls.wrQLenPdf::41                      0                       # What write queue length does an incoming req see
system.mem_ctrls.wrQLenPdf::42                      0                       # What write queue length does an incoming req see
system.mem_ctrls.wrQLenPdf::43                      0                       # What write queue length does an incoming req see
system.mem_ctrls.wrQLenPdf::44                      0                       # What write queue length does an incoming req see
system.mem_ctrls.wrQLenPdf::45                      0                       # What write queue length does an incoming req see
system.mem_ctrls.wrQLenPdf::46                      0                       # What write queue length does an incoming req see
system.mem_ctrls.wrQLenPdf::47                      0                       # What write queue length does an incoming req see
system.mem_ctrls.wrQLenPdf::48                      0                       # What write queue length does an incoming req see
system.mem_ctrls.wrQLenPdf::49                      0                       # What write queue length does an incoming req see
system.mem_ctrls.wrQLenPdf::50                      0                       # What write queue length does an incoming req see
system.mem_ctrls.wrQLenPdf::51                      0                       # What write queue length does an incoming req see
system.mem_ctrls.wrQLenPdf::52                      0                       # What write queue length does an incoming req see
system.mem_ctrls.wrQLenPdf::53                      0                       # What write queue length does an incoming req see
system.mem_ctrls.wrQLenPdf::54                      0                       # What write queue length does an incoming req see
system.mem_ctrls.wrQLenPdf::55                      0                       # What write queue length does an incoming req see
system.mem_ctrls.wrQLenPdf::56                      0                       # What write queue length does an incoming req see
system.mem_ctrls.wrQLenPdf::57                      0                       # What write queue length does an incoming req see
system.mem_ctrls.wrQLenPdf::58                      0                       # What write queue length does an incoming req see
system.mem_ctrls.wrQLenPdf::59                      0                       # What write queue length does an incoming req see
system.mem_ctrls.wrQLenPdf::60                      0                       # What write queue length does an incoming req see
system.mem_ctrls.wrQLenPdf::61                      0                       # What write queue length does an incoming req see
system.mem_ctrls.wrQLenPdf::62                      0                       # What write queue length does an incoming req see
system.mem_ctrls.wrQLenPdf::63                      0                       # What write queue length does an incoming req see
system.mem_ctrls.bytesPerActivate::samples         3636                       # Bytes accessed per row activation
system.mem_ctrls.bytesPerActivate::mean    226.253025                       # Bytes accessed per row activation
system.mem_ctrls.bytesPerActivate::gmean   148.292503                       # Bytes accessed per row activation
system.mem_ctrls.bytesPerActivate::stdev   265.737225                       # Bytes accessed per row activation
system.mem_ctrls.bytesPerActivate::0-127         1085     29.84%     29.84% # Bytes accessed per row activation
system.mem_ctrls.bytesPerActivate::128-255         1676     46.09%     75.94% # Bytes accessed per row activation
system.mem_ctrls.bytesPerActivate::256-383          333      9.16%     85.09% # Bytes accessed per row activation
system.mem_ctrls.bytesPerActivate::384-511          109      3.00%     88.09% # Bytes accessed per row activation
system.mem_ctrls.bytesPerActivate::512-639           63      1.73%     89.82% # Bytes accessed per row activation
system.mem_ctrls.bytesPerActivate::640-767           50      1.38%     91.20% # Bytes accessed per row activation
system.mem_ctrls.bytesPerActivate::768-895           32      0.88%     92.08% # Bytes accessed per row activation
system.mem_ctrls.bytesPerActivate::896-1023           17      0.47%     92.55% # Bytes accessed per row activation
system.mem_ctrls.bytesPerActivate::1024-1151          271      7.45%    100.00% # Bytes accessed per row activation
system.mem_ctrls.bytesPerActivate::total         3636                       # Bytes accessed per row activation
system.mem_ctrls.totQLat                    424298500                       # Total ticks spent queuing
system.mem_ctrls.totMemAccLat               665311000                       # Total ticks spent from burst creation until serviced by the DRAM
system.mem_ctrls.totBusLat                   64270000                       # Total ticks spent in databus transfers
system.mem_ctrls.avgQLat                     33009.06                       # Average queueing delay per DRAM burst
system.mem_ctrls.avgBusLat                    5000.00                       # Average bus latency per DRAM burst
system.mem_ctrls.avgMemAccLat                51759.06                       # Average memory access latency per DRAM burst
system.mem_ctrls.avgRdBW                         0.86                       # Average DRAM read bandwidth in MiByte/s
system.mem_ctrls.avgWrBW                         0.00                       # Average achieved write bandwidth in MiByte/s
system.mem_ctrls.avgRdBWSys                      0.44                       # Average system read bandwidth in MiByte/s
system.mem_ctrls.avgWrBWSys                      0.01                       # Average system write bandwidth in MiByte/s
system.mem_ctrls.peakBW                      12800.00                       # Theoretical peak bandwidth in MiByte/s
system.mem_ctrls.busUtil                         0.01                       # Data bus utilization in percentage
system.mem_ctrls.busUtilRead                     0.01                       # Data bus utilization in percentage for reads
system.mem_ctrls.busUtilWrite                    0.00                       # Data bus utilization in percentage for writes
system.mem_ctrls.avgRdQLen                       1.00                       # Average read queue length when enqueuing
system.mem_ctrls.avgWrQLen                      26.80                       # Average write queue length when enqueuing
system.mem_ctrls.readRowHits                     9218                       # Number of row buffer hits during reads
system.mem_ctrls.writeRowHits                       0                       # Number of row buffer hits during writes
system.mem_ctrls.readRowHitRate                 71.71                       # Row buffer hit rate for reads
system.mem_ctrls.writeRowHitRate                 0.00                       # Row buffer hit rate for writes
system.mem_ctrls.avgGap                   70916283.17                       # Average gap between requests
system.mem_ctrls.pageHitRate                    71.56                       # Row buffer hit rate, read and write combined
system.mem_ctrls_0.actEnergy                 14729820                       # Energy for activate commands per rank (pJ)
system.mem_ctrls_0.preEnergy                  7829085                       # Energy for precharge commands per rank (pJ)
system.mem_ctrls_0.readEnergy                51043860                       # Energy for read commands per rank (pJ)
system.mem_ctrls_0.writeEnergy                      0                       # Energy for write commands per rank (pJ)
system.mem_ctrls_0.refreshEnergy         1186869840.000000                       # Energy for refresh commands per rank (pJ)
system.mem_ctrls_0.actBackEnergy            309267180                       # Energy for active background per rank (pJ)
system.mem_ctrls_0.preBackEnergy             64851840                       # Energy for precharge background per rank (pJ)
system.mem_ctrls_0.actPowerDownEnergy      3167686650                       # Energy for active power-down per rank (pJ)
system.mem_ctrls_0.prePowerDownEnergy      1575310560                       # Energy for precharge power-down per rank (pJ)
system.mem_ctrls_0.selfRefreshEnergy     227274529920                       # Energy for self refresh per rank (pJ)
system.mem_ctrls_0.totalEnergy           233652118755                       # Total energy per rank (pJ)
system.mem_ctrls_0.averagePower            243.927051                       # Core power per rank (mW)
system.mem_ctrls_0.totalIdleTime         954196343750                       # Total Idle time Per DRAM Rank
system.mem_ctrls_0.memoryStateTime::IDLE    121163500                       # Time in different power states
system.mem_ctrls_0.memoryStateTime::REF     504670000                       # Time in different power states
system.mem_ctrls_0.memoryStateTime::SREF 945980873000                       # Time in different power states
system.mem_ctrls_0.memoryStateTime::PRE_PDN   4102426000                       # Time in different power states
system.mem_ctrls_0.memoryStateTime::ACT     221266250                       # Time in different power states
system.mem_ctrls_0.memoryStateTime::ACT_PDN   6946630750                       # Time in different power states
system.mem_ctrls_1.actEnergy                 11231220                       # Energy for activate commands per rank (pJ)
system.mem_ctrls_1.preEnergy                  5969535                       # Energy for precharge commands per rank (pJ)
system.mem_ctrls_1.readEnergy                40733700                       # Energy for read commands per rank (pJ)
system.mem_ctrls_1.writeEnergy                      0                       # Energy for write commands per rank (pJ)
system.mem_ctrls_1.refreshEnergy         417340560.000000                       # Energy for refresh commands per rank (pJ)
system.mem_ctrls_1.actBackEnergy            151283700                       # Energy for active background per rank (pJ)
system.mem_ctrls_1.preBackEnergy             13025760                       # Energy for precharge background per rank (pJ)
system.mem_ctrls_1.actPowerDownEnergy      1666397280                       # Energy for active power-down per rank (pJ)
system.mem_ctrls_1.prePowerDownEnergy       377975040                       # Energy for precharge power-down per rank (pJ)
system.mem_ctrls_1.selfRefreshEnergy     228710974860                       # Energy for self refresh per rank (pJ)
system.mem_ctrls_1.totalEnergy           231394931655                       # Total energy per rank (pJ)
system.mem_ctrls_1.averagePower            241.570603                       # Core power per rank (mW)
system.mem_ctrls_1.totalIdleTime          16299438500                       # Total Idle time Per DRAM Rank
system.mem_ctrls_1.memoryStateTime::IDLE     15118000                       # Time in different power states
system.mem_ctrls_1.memoryStateTime::REF     176780000                       # Time in different power states
system.mem_ctrls_1.memoryStateTime::SREF 952872659500                       # Time in different power states
system.mem_ctrls_1.memoryStateTime::PRE_PDN    984218500                       # Time in different power states
system.mem_ctrls_1.memoryStateTime::ACT     173677000                       # Time in different power states
system.mem_ctrls_1.memoryStateTime::ACT_PDN   3654576500                       # Time in different power states
system.pwrStateResidencyTicks::UNDEFINED 957877029500                       # Cumulative time (in ticks) in various power states
system.cpu_voltage_domain.voltage                   1                       # Voltage in Volts
system.cpu_clk_domain.clock                       500                       # Clock period in ticks
system.cpu.dtb.walker.pwrStateResidencyTicks::UNDEFINED 957877029500                       # Cumulative time (in ticks) in various power states
system.cpu.apic_clk_domain.clock                 8000                       # Clock period in ticks
system.cpu.interrupts.pwrStateResidencyTicks::UNDEFINED 957877029500                       # Cumulative time (in ticks) in various power states
system.cpu.itb.walker.pwrStateResidencyTicks::UNDEFINED 957877029500                       # Cumulative time (in ticks) in various power states
system.cpu.workload.num_syscalls                   34                       # Number of system calls
system.cpu.pwrStateResidencyTicks::ON    957877029500                       # Cumulative time (in ticks) in various power states
system.cpu.numCycles                       1915754059                       # number of cpu cycles simulated
system.cpu.numWorkItemsStarted                      0                       # number of work items this cpu started
system.cpu.numWorkItemsCompleted                    0                       # number of work items this cpu completed
system.cpu.committedInsts                   500000000                       # Number of instructions committed
system.cpu.committedOps                     644780824                       # Number of ops (including micro ops) committed
system.cpu.num_int_alu_accesses             625781845                       # Number of integer alu accesses
system.cpu.num_fp_alu_accesses               27680885                       # Number of float alu accesses
system.cpu.num_func_calls                     1532449                       # number of times a function call or return occured
system.cpu.num_conditional_control_insts     25288260                       # number of instructions that are conditional controls
system.cpu.num_int_insts                    625781845                       # number of integer instructions
system.cpu.num_fp_insts                      27680885                       # number of float instructions
system.cpu.num_int_register_reads          1467255983                       # number of times the integer registers were read
system.cpu.num_int_register_writes          569426959                       # number of times the integer registers were written
system.cpu.num_fp_register_reads             21886167                       # number of times the floating registers were read
system.cpu.num_fp_register_writes            23676651                       # number of times the floating registers were written
system.cpu.num_cc_register_reads            187287140                       # number of times the CC registers were read
system.cpu.num_cc_register_writes           260710310                       # number of times the CC registers were written
system.cpu.num_mem_refs                     254811579                       # number of memory refs
system.cpu.num_load_insts                   219158147                       # Number of load instructions
system.cpu.num_store_insts                   35653432                       # Number of store instructions
system.cpu.num_idle_cycles                          0                       # Number of idle cycles
system.cpu.num_busy_cycles                 1915754059                       # Number of busy cycles
system.cpu.not_idle_fraction                        1                       # Percentage of non-idle cycles
system.cpu.idle_fraction                            0                       # Percentage of idle cycles
system.cpu.Branches                          27593151                       # Number of branches fetched
system.cpu.op_class::No_OpClass               1477149      0.23%      0.23% # Class of executed instruction
system.cpu.op_class::IntAlu                 363712896     56.41%     56.64% # Class of executed instruction
system.cpu.op_class::IntMult                   612864      0.10%     56.73% # Class of executed instruction
system.cpu.op_class::IntDiv                   6327906      0.98%     57.71% # Class of executed instruction
system.cpu.op_class::FloatAdd                17838430      2.77%     60.48% # Class of executed instruction
system.cpu.op_class::FloatCmp                       0      0.00%     60.48% # Class of executed instruction
system.cpu.op_class::FloatCvt                       0      0.00%     60.48% # Class of executed instruction
system.cpu.op_class::FloatMult                      0      0.00%     60.48% # Class of executed instruction
system.cpu.op_class::FloatDiv                       0      0.00%     60.48% # Class of executed instruction
system.cpu.op_class::FloatSqrt                      0      0.00%     60.48% # Class of executed instruction
system.cpu.op_class::SimdAdd                        0      0.00%     60.48% # Class of executed instruction
system.cpu.op_class::SimdAddAcc                     0      0.00%     60.48% # Class of executed instruction
system.cpu.op_class::SimdAlu                        0      0.00%     60.48% # Class of executed instruction
system.cpu.op_class::SimdCmp                        0      0.00%     60.48% # Class of executed instruction
system.cpu.op_class::SimdCvt                        0      0.00%     60.48% # Class of executed instruction
system.cpu.op_class::SimdMisc                       0      0.00%     60.48% # Class of executed instruction
system.cpu.op_class::SimdMult                       0      0.00%     60.48% # Class of executed instruction
system.cpu.op_class::SimdMultAcc                    0      0.00%     60.48% # Class of executed instruction
system.cpu.op_class::SimdShift                      0      0.00%     60.48% # Class of executed instruction
system.cpu.op_class::SimdShiftAcc                   0      0.00%     60.48% # Class of executed instruction
system.cpu.op_class::SimdSqrt                       0      0.00%     60.48% # Class of executed instruction
system.cpu.op_class::SimdFloatAdd                   0      0.00%     60.48% # Class of executed instruction
system.cpu.op_class::SimdFloatAlu                   0      0.00%     60.48% # Class of executed instruction
system.cpu.op_class::SimdFloatCmp                   0      0.00%     60.48% # Class of executed instruction
system.cpu.op_class::SimdFloatCvt                   0      0.00%     60.48% # Class of executed instruction
system.cpu.op_class::SimdFloatDiv                   0      0.00%     60.48% # Class of executed instruction
system.cpu.op_class::SimdFloatMisc                  0      0.00%     60.48% # Class of executed instruction
system.cpu.op_class::SimdFloatMult                  0      0.00%     60.48% # Class of executed instruction
system.cpu.op_class::SimdFloatMultAcc               0      0.00%     60.48% # Class of executed instruction
system.cpu.op_class::SimdFloatSqrt                  0      0.00%     60.48% # Class of executed instruction
system.cpu.op_class::MemRead                219158147     33.99%     94.47% # Class of executed instruction
system.cpu.op_class::MemWrite                35653432      5.53%    100.00% # Class of executed instruction
system.cpu.op_class::IprAccess                      0      0.00%    100.00% # Class of executed instruction
system.cpu.op_class::InstPrefetch                   0      0.00%    100.00% # Class of executed instruction
system.cpu.op_class::total                  644780824                       # Class of executed instruction
system.cpu.dcache.tags.pwrStateResidencyTicks::UNDEFINED 957877029500                       # Cumulative time (in ticks) in various power states
system.cpu.dcache.tags.replacements            457695                       # number of replacements
system.cpu.dcache.tags.tagsinuse          4084.597394                       # Cycle average of tags in use
system.cpu.dcache.tags.total_refs           254351430                       # Total number of references to valid blocks.
system.cpu.dcache.tags.sampled_refs            461791                       # Sample count of references to valid blocks.
system.cpu.dcache.tags.avg_refs            550.793389                       # Average number of references to valid blocks.
system.cpu.dcache.tags.warmup_cycle        8151115500                       # Cycle when the warmup percentage was hit.
system.cpu.dcache.tags.occ_blocks::cpu.data  4084.597394                       # Average occupied blocks per requestor
system.cpu.dcache.tags.occ_percent::cpu.data     0.997216                       # Average percentage of cache occupancy
system.cpu.dcache.tags.occ_percent::total     0.997216                       # Average percentage of cache occupancy
system.cpu.dcache.tags.occ_task_id_blocks::1024         4096                       # Occupied blocks per task id
system.cpu.dcache.tags.age_task_id_blocks_1024::0            3                       # Occupied blocks per task id
system.cpu.dcache.tags.age_task_id_blocks_1024::1           28                       # Occupied blocks per task id
system.cpu.dcache.tags.age_task_id_blocks_1024::2          481                       # Occupied blocks per task id
system.cpu.dcache.tags.age_task_id_blocks_1024::3          322                       # Occupied blocks per task id
system.cpu.dcache.tags.age_task_id_blocks_1024::4         3262                       # Occupied blocks per task id
system.cpu.dcache.tags.occ_task_id_percent::1024            1                       # Percentage of cache occupancy per task id
system.cpu.dcache.tags.tag_accesses         255275012                       # Number of tag accesses
system.cpu.dcache.tags.data_accesses        255275012                       # Number of data accesses
system.cpu.dcache.pwrStateResidencyTicks::UNDEFINED 957877029500                       # Cumulative time (in ticks) in various power states
system.cpu.dcache.ReadReq_hits::cpu.data    219049135                       # number of ReadReq hits
system.cpu.dcache.ReadReq_hits::total       219049135                       # number of ReadReq hits
system.cpu.dcache.WriteReq_hits::cpu.data     35301576                       # number of WriteReq hits
system.cpu.dcache.WriteReq_hits::total       35301576                       # number of WriteReq hits
system.cpu.dcache.SoftPFReq_hits::cpu.data          719                       # number of SoftPFReq hits
system.cpu.dcache.SoftPFReq_hits::total           719                       # number of SoftPFReq hits
system.cpu.dcache.demand_hits::cpu.data     254350711                       # number of demand (read+write) hits
system.cpu.dcache.demand_hits::total        254350711                       # number of demand (read+write) hits
system.cpu.dcache.overall_hits::cpu.data    254351430                       # number of overall hits
system.cpu.dcache.overall_hits::total       254351430                       # number of overall hits
system.cpu.dcache.ReadReq_misses::cpu.data       108335                       # number of ReadReq misses
system.cpu.dcache.ReadReq_misses::total        108335                       # number of ReadReq misses
system.cpu.dcache.WriteReq_misses::cpu.data       351951                       # number of WriteReq misses
system.cpu.dcache.WriteReq_misses::total       351951                       # number of WriteReq misses
system.cpu.dcache.SoftPFReq_misses::cpu.data         1505                       # number of SoftPFReq misses
system.cpu.dcache.SoftPFReq_misses::total         1505                       # number of SoftPFReq misses
system.cpu.dcache.demand_misses::cpu.data       460286                       # number of demand (read+write) misses
system.cpu.dcache.demand_misses::total         460286                       # number of demand (read+write) misses
system.cpu.dcache.overall_misses::cpu.data       461791                       # number of overall misses
system.cpu.dcache.overall_misses::total        461791                       # number of overall misses
system.cpu.dcache.ReadReq_miss_latency::cpu.data   1507966500                       # number of ReadReq miss cycles
system.cpu.dcache.ReadReq_miss_latency::total   1507966500                       # number of ReadReq miss cycles
system.cpu.dcache.WriteReq_miss_latency::cpu.data   5168995000                       # number of WriteReq miss cycles
system.cpu.dcache.WriteReq_miss_latency::total   5168995000                       # number of WriteReq miss cycles
system.cpu.dcache.demand_miss_latency::cpu.data   6676961500                       # number of demand (read+write) miss cycles
system.cpu.dcache.demand_miss_latency::total   6676961500                       # number of demand (read+write) miss cycles
system.cpu.dcache.overall_miss_latency::cpu.data   6676961500                       # number of overall miss cycles
system.cpu.dcache.overall_miss_latency::total   6676961500                       # number of overall miss cycles
system.cpu.dcache.ReadReq_accesses::cpu.data    219157470                       # number of ReadReq accesses(hits+misses)
system.cpu.dcache.ReadReq_accesses::total    219157470                       # number of ReadReq accesses(hits+misses)
system.cpu.dcache.WriteReq_accesses::cpu.data     35653527                       # number of WriteReq accesses(hits+misses)
system.cpu.dcache.WriteReq_accesses::total     35653527                       # number of WriteReq accesses(hits+misses)
system.cpu.dcache.SoftPFReq_accesses::cpu.data         2224                       # number of SoftPFReq accesses(hits+misses)
system.cpu.dcache.SoftPFReq_accesses::total         2224                       # number of SoftPFReq accesses(hits+misses)
system.cpu.dcache.demand_accesses::cpu.data    254810997                       # number of demand (read+write) accesses
system.cpu.dcache.demand_accesses::total    254810997                       # number of demand (read+write) accesses
system.cpu.dcache.overall_accesses::cpu.data    254813221                       # number of overall (read+write) accesses
system.cpu.dcache.overall_accesses::total    254813221                       # number of overall (read+write) accesses
system.cpu.dcache.ReadReq_miss_rate::cpu.data     0.000494                       # miss rate for ReadReq accesses
system.cpu.dcache.ReadReq_miss_rate::total     0.000494                       # miss rate for ReadReq accesses
system.cpu.dcache.WriteReq_miss_rate::cpu.data     0.009871                       # miss rate for WriteReq accesses
system.cpu.dcache.WriteReq_miss_rate::total     0.009871                       # miss rate for WriteReq accesses
system.cpu.dcache.SoftPFReq_miss_rate::cpu.data     0.676709                       # miss rate for SoftPFReq accesses
system.cpu.dcache.SoftPFReq_miss_rate::total     0.676709                       # miss rate for SoftPFReq accesses
system.cpu.dcache.demand_miss_rate::cpu.data     0.001806                       # miss rate for demand accesses
system.cpu.dcache.demand_miss_rate::total     0.001806                       # miss rate for demand accesses
system.cpu.dcache.overall_miss_rate::cpu.data     0.001812                       # miss rate for overall accesses
system.cpu.dcache.overall_miss_rate::total     0.001812                       # miss rate for overall accesses
system.cpu.dcache.ReadReq_avg_miss_latency::cpu.data 13919.476623                       # average ReadReq miss latency
system.cpu.dcache.ReadReq_avg_miss_latency::total 13919.476623                       # average ReadReq miss latency
system.cpu.dcache.WriteReq_avg_miss_latency::cpu.data 14686.689340                       # average WriteReq miss latency
system.cpu.dcache.WriteReq_avg_miss_latency::total 14686.689340                       # average WriteReq miss latency
system.cpu.dcache.demand_avg_miss_latency::cpu.data 14506.114677                       # average overall miss latency
system.cpu.dcache.demand_avg_miss_latency::total 14506.114677                       # average overall miss latency
system.cpu.dcache.overall_avg_miss_latency::cpu.data 14458.838522                       # average overall miss latency
system.cpu.dcache.overall_avg_miss_latency::total 14458.838522                       # average overall miss latency
system.cpu.dcache.blocked_cycles::no_mshrs         1741                       # number of cycles access was blocked
system.cpu.dcache.blocked_cycles::no_targets            0                       # number of cycles access was blocked
system.cpu.dcache.blocked::no_mshrs                 7                       # number of cycles access was blocked
system.cpu.dcache.blocked::no_targets               0                       # number of cycles access was blocked
system.cpu.dcache.avg_blocked_cycles::no_mshrs   248.714286                       # average number of cycles each access was blocked
system.cpu.dcache.avg_blocked_cycles::no_targets          nan                       # average number of cycles each access was blocked
system.cpu.dcache.writebacks::writebacks       452209                       # number of writebacks
system.cpu.dcache.writebacks::total            452209                       # number of writebacks
system.cpu.dcache.ReadReq_mshr_misses::cpu.data       108335                       # number of ReadReq MSHR misses
system.cpu.dcache.ReadReq_mshr_misses::total       108335                       # number of ReadReq MSHR misses
system.cpu.dcache.WriteReq_mshr_misses::cpu.data       351951                       # number of WriteReq MSHR misses
system.cpu.dcache.WriteReq_mshr_misses::total       351951                       # number of WriteReq MSHR misses
system.cpu.dcache.SoftPFReq_mshr_misses::cpu.data         1505                       # number of SoftPFReq MSHR misses
system.cpu.dcache.SoftPFReq_mshr_misses::total         1505                       # number of SoftPFReq MSHR misses
system.cpu.dcache.demand_mshr_misses::cpu.data       460286                       # number of demand (read+write) MSHR misses
system.cpu.dcache.demand_mshr_misses::total       460286                       # number of demand (read+write) MSHR misses
system.cpu.dcache.overall_mshr_misses::cpu.data       461791                       # number of overall MSHR misses
system.cpu.dcache.overall_mshr_misses::total       461791                       # number of overall MSHR misses
system.cpu.dcache.ReadReq_mshr_miss_latency::cpu.data   1399631500                       # number of ReadReq MSHR miss cycles
system.cpu.dcache.ReadReq_mshr_miss_latency::total   1399631500                       # number of ReadReq MSHR miss cycles
system.cpu.dcache.WriteReq_mshr_miss_latency::cpu.data   4817044000                       # number of WriteReq MSHR miss cycles
system.cpu.dcache.WriteReq_mshr_miss_latency::total   4817044000                       # number of WriteReq MSHR miss cycles
system.cpu.dcache.SoftPFReq_mshr_miss_latency::cpu.data     56604000                       # number of SoftPFReq MSHR miss cycles
system.cpu.dcache.SoftPFReq_mshr_miss_latency::total     56604000                       # number of SoftPFReq MSHR miss cycles
system.cpu.dcache.demand_mshr_miss_latency::cpu.data   6216675500                       # number of demand (read+write) MSHR miss cycles
system.cpu.dcache.demand_mshr_miss_latency::total   6216675500                       # number of demand (read+write) MSHR miss cycles
system.cpu.dcache.overall_mshr_miss_latency::cpu.data   6273279500                       # number of overall MSHR miss cycles
system.cpu.dcache.overall_mshr_miss_latency::total   6273279500                       # number of overall MSHR miss cycles
system.cpu.dcache.ReadReq_mshr_miss_rate::cpu.data     0.000494                       # mshr miss rate for ReadReq accesses
system.cpu.dcache.ReadReq_mshr_miss_rate::total     0.000494                       # mshr miss rate for ReadReq accesses
system.cpu.dcache.WriteReq_mshr_miss_rate::cpu.data     0.009871                       # mshr miss rate for WriteReq accesses
system.cpu.dcache.WriteReq_mshr_miss_rate::total     0.009871                       # mshr miss rate for WriteReq accesses
system.cpu.dcache.SoftPFReq_mshr_miss_rate::cpu.data     0.676709                       # mshr miss rate for SoftPFReq accesses
system.cpu.dcache.SoftPFReq_mshr_miss_rate::total     0.676709                       # mshr miss rate for SoftPFReq accesses
system.cpu.dcache.demand_mshr_miss_rate::cpu.data     0.001806                       # mshr miss rate for demand accesses
system.cpu.dcache.demand_mshr_miss_rate::total     0.001806                       # mshr miss rate for demand accesses
system.cpu.dcache.overall_mshr_miss_rate::cpu.data     0.001812                       # mshr miss rate for overall accesses
system.cpu.dcache.overall_mshr_miss_rate::total     0.001812                       # mshr miss rate for overall accesses
system.cpu.dcache.ReadReq_avg_mshr_miss_latency::cpu.data 12919.476623                       # average ReadReq mshr miss latency
system.cpu.dcache.ReadReq_avg_mshr_miss_latency::total 12919.476623                       # average ReadReq mshr miss latency
system.cpu.dcache.WriteReq_avg_mshr_miss_latency::cpu.data 13686.689340                       # average WriteReq mshr miss latency
system.cpu.dcache.WriteReq_avg_mshr_miss_latency::total 13686.689340                       # average WriteReq mshr miss latency
system.cpu.dcache.SoftPFReq_avg_mshr_miss_latency::cpu.data 37610.631229                       # average SoftPFReq mshr miss latency
system.cpu.dcache.SoftPFReq_avg_mshr_miss_latency::total 37610.631229                       # average SoftPFReq mshr miss latency
system.cpu.dcache.demand_avg_mshr_miss_latency::cpu.data 13506.114677                       # average overall mshr miss latency
system.cpu.dcache.demand_avg_mshr_miss_latency::total 13506.114677                       # average overall mshr miss latency
system.cpu.dcache.overall_avg_mshr_miss_latency::cpu.data 13584.672503                       # average overall mshr miss latency
system.cpu.dcache.overall_avg_mshr_miss_latency::total 13584.672503                       # average overall mshr miss latency
system.cpu.dtb_walker_cache.tags.pwrStateResidencyTicks::UNDEFINED 957877029500                       # Cumulative time (in ticks) in various power states
system.cpu.dtb_walker_cache.tags.replacements            0                       # number of replacements
system.cpu.dtb_walker_cache.tags.tagsinuse            0                       # Cycle average of tags in use
system.cpu.dtb_walker_cache.tags.total_refs            0                       # Total number of references to valid blocks.
system.cpu.dtb_walker_cache.tags.sampled_refs            0                       # Sample count of references to valid blocks.
system.cpu.dtb_walker_cache.tags.avg_refs          nan                       # Average number of references to valid blocks.
system.cpu.dtb_walker_cache.tags.warmup_cycle            0                       # Cycle when the warmup percentage was hit.
system.cpu.dtb_walker_cache.tags.tag_accesses            0                       # Number of tag accesses
system.cpu.dtb_walker_cache.tags.data_accesses            0                       # Number of data accesses
system.cpu.dtb_walker_cache.pwrStateResidencyTicks::UNDEFINED 957877029500                       # Cumulative time (in ticks) in various power states
system.cpu.dtb_walker_cache.blocked_cycles::no_mshrs            0                       # number of cycles access was blocked
system.cpu.dtb_walker_cache.blocked_cycles::no_targets            0                       # number of cycles access was blocked
system.cpu.dtb_walker_cache.blocked::no_mshrs            0                       # number of cycles access was blocked
system.cpu.dtb_walker_cache.blocked::no_targets            0                       # number of cycles access was blocked
system.cpu.dtb_walker_cache.avg_blocked_cycles::no_mshrs          nan                       # average number of cycles each access was blocked
system.cpu.dtb_walker_cache.avg_blocked_cycles::no_targets          nan                       # average number of cycles each access was blocked
system.cpu.icache.tags.pwrStateResidencyTicks::UNDEFINED 957877029500                       # Cumulative time (in ticks) in various power states
system.cpu.icache.tags.replacements             32027                       # number of replacements
system.cpu.icache.tags.tagsinuse           966.751160                       # Cycle average of tags in use
system.cpu.icache.tags.total_refs           695960236                       # Total number of references to valid blocks.
system.cpu.icache.tags.sampled_refs             32994                       # Sample count of references to valid blocks.
system.cpu.icache.tags.avg_refs          21093.539310                       # Average number of references to valid blocks.
system.cpu.icache.tags.warmup_cycle                 0                       # Cycle when the warmup percentage was hit.
system.cpu.icache.tags.occ_blocks::cpu.inst   966.751160                       # Average occupied blocks per requestor
system.cpu.icache.tags.occ_percent::cpu.inst     0.944093                       # Average percentage of cache occupancy
system.cpu.icache.tags.occ_percent::total     0.944093                       # Average percentage of cache occupancy
system.cpu.icache.tags.occ_task_id_blocks::1024          967                       # Occupied blocks per task id
system.cpu.icache.tags.age_task_id_blocks_1024::3           33                       # Occupied blocks per task id
system.cpu.icache.tags.age_task_id_blocks_1024::4          934                       # Occupied blocks per task id
system.cpu.icache.tags.occ_task_id_percent::1024     0.944336                       # Percentage of cache occupancy per task id
system.cpu.icache.tags.tag_accesses         696026224                       # Number of tag accesses
system.cpu.icache.tags.data_accesses        696026224                       # Number of data accesses
system.cpu.icache.pwrStateResidencyTicks::UNDEFINED 957877029500                       # Cumulative time (in ticks) in various power states
system.cpu.icache.ReadReq_hits::cpu.inst    695960236                       # number of ReadReq hits
system.cpu.icache.ReadReq_hits::total       695960236                       # number of ReadReq hits
system.cpu.icache.demand_hits::cpu.inst     695960236                       # number of demand (read+write) hits
system.cpu.icache.demand_hits::total        695960236                       # number of demand (read+write) hits
system.cpu.icache.overall_hits::cpu.inst    695960236                       # number of overall hits
system.cpu.icache.overall_hits::total       695960236                       # number of overall hits
system.cpu.icache.ReadReq_misses::cpu.inst        32994                       # number of ReadReq misses
system.cpu.icache.ReadReq_misses::total         32994                       # number of ReadReq misses
system.cpu.icache.demand_misses::cpu.inst        32994                       # number of demand (read+write) misses
system.cpu.icache.demand_misses::total          32994                       # number of demand (read+write) misses
system.cpu.icache.overall_misses::cpu.inst        32994                       # number of overall misses
system.cpu.icache.overall_misses::total         32994                       # number of overall misses
system.cpu.icache.ReadReq_miss_latency::cpu.inst    886874000                       # number of ReadReq miss cycles
system.cpu.icache.ReadReq_miss_latency::total    886874000                       # number of ReadReq miss cycles
system.cpu.icache.demand_miss_latency::cpu.inst    886874000                       # number of demand (read+write) miss cycles
system.cpu.icache.demand_miss_latency::total    886874000                       # number of demand (read+write) miss cycles
system.cpu.icache.overall_miss_latency::cpu.inst    886874000                       # number of overall miss cycles
system.cpu.icache.overall_miss_latency::total    886874000                       # number of overall miss cycles
system.cpu.icache.ReadReq_accesses::cpu.inst    695993230                       # number of ReadReq accesses(hits+misses)
system.cpu.icache.ReadReq_accesses::total    695993230                       # number of ReadReq accesses(hits+misses)
system.cpu.icache.demand_accesses::cpu.inst    695993230                       # number of demand (read+write) accesses
system.cpu.icache.demand_accesses::total    695993230                       # number of demand (read+write) accesses
system.cpu.icache.overall_accesses::cpu.inst    695993230                       # number of overall (read+write) accesses
system.cpu.icache.overall_accesses::total    695993230                       # number of overall (read+write) accesses
system.cpu.icache.ReadReq_miss_rate::cpu.inst     0.000047                       # miss rate for ReadReq accesses
system.cpu.icache.ReadReq_miss_rate::total     0.000047                       # miss rate for ReadReq accesses
system.cpu.icache.demand_miss_rate::cpu.inst     0.000047                       # miss rate for demand accesses
system.cpu.icache.demand_miss_rate::total     0.000047                       # miss rate for demand accesses
system.cpu.icache.overall_miss_rate::cpu.inst     0.000047                       # miss rate for overall accesses
system.cpu.icache.overall_miss_rate::total     0.000047                       # miss rate for overall accesses
system.cpu.icache.ReadReq_avg_miss_latency::cpu.inst 26879.856944                       # average ReadReq miss latency
system.cpu.icache.ReadReq_avg_miss_latency::total 26879.856944                       # average ReadReq miss latency
system.cpu.icache.demand_avg_miss_latency::cpu.inst 26879.856944                       # average overall miss latency
system.cpu.icache.demand_avg_miss_latency::total 26879.856944                       # average overall miss latency
system.cpu.icache.overall_avg_miss_latency::cpu.inst 26879.856944                       # average overall miss latency
system.cpu.icache.overall_avg_miss_latency::total 26879.856944                       # average overall miss latency
system.cpu.icache.blocked_cycles::no_mshrs            0                       # number of cycles access was blocked
system.cpu.icache.blocked_cycles::no_targets            0                       # number of cycles access was blocked
system.cpu.icache.blocked::no_mshrs                 0                       # number of cycles access was blocked
system.cpu.icache.blocked::no_targets               0                       # number of cycles access was blocked
system.cpu.icache.avg_blocked_cycles::no_mshrs          nan                       # average number of cycles each access was blocked
system.cpu.icache.avg_blocked_cycles::no_targets          nan                       # average number of cycles each access was blocked
system.cpu.icache.writebacks::writebacks        32027                       # number of writebacks
system.cpu.icache.writebacks::total             32027                       # number of writebacks
system.cpu.icache.ReadReq_mshr_misses::cpu.inst        32994                       # number of ReadReq MSHR misses
system.cpu.icache.ReadReq_mshr_misses::total        32994                       # number of ReadReq MSHR misses
system.cpu.icache.demand_mshr_misses::cpu.inst        32994                       # number of demand (read+write) MSHR misses
system.cpu.icache.demand_mshr_misses::total        32994                       # number of demand (read+write) MSHR misses
system.cpu.icache.overall_mshr_misses::cpu.inst        32994                       # number of overall MSHR misses
system.cpu.icache.overall_mshr_misses::total        32994                       # number of overall MSHR misses
system.cpu.icache.ReadReq_mshr_miss_latency::cpu.inst    853880000                       # number of ReadReq MSHR miss cycles
system.cpu.icache.ReadReq_mshr_miss_latency::total    853880000                       # number of ReadReq MSHR miss cycles
system.cpu.icache.demand_mshr_miss_latency::cpu.inst    853880000                       # number of demand (read+write) MSHR miss cycles
system.cpu.icache.demand_mshr_miss_latency::total    853880000                       # number of demand (read+write) MSHR miss cycles
system.cpu.icache.overall_mshr_miss_latency::cpu.inst    853880000                       # number of overall MSHR miss cycles
system.cpu.icache.overall_mshr_miss_latency::total    853880000                       # number of overall MSHR miss cycles
system.cpu.icache.ReadReq_mshr_miss_rate::cpu.inst     0.000047                       # mshr miss rate for ReadReq accesses
system.cpu.icache.ReadReq_mshr_miss_rate::total     0.000047                       # mshr miss rate for ReadReq accesses
system.cpu.icache.demand_mshr_miss_rate::cpu.inst     0.000047                       # mshr miss rate for demand accesses
system.cpu.icache.demand_mshr_miss_rate::total     0.000047                       # mshr miss rate for demand accesses
system.cpu.icache.overall_mshr_miss_rate::cpu.inst     0.000047                       # mshr miss rate for overall accesses
system.cpu.icache.overall_mshr_miss_rate::total     0.000047                       # mshr miss rate for overall accesses
system.cpu.icache.ReadReq_avg_mshr_miss_latency::cpu.inst 25879.856944                       # average ReadReq mshr miss latency
system.cpu.icache.ReadReq_avg_mshr_miss_latency::total 25879.856944                       # average ReadReq mshr miss latency
system.cpu.icache.demand_avg_mshr_miss_latency::cpu.inst 25879.856944                       # average overall mshr miss latency
system.cpu.icache.demand_avg_mshr_miss_latency::total 25879.856944                       # average overall mshr miss latency
system.cpu.icache.overall_avg_mshr_miss_latency::cpu.inst 25879.856944                       # average overall mshr miss latency
system.cpu.icache.overall_avg_mshr_miss_latency::total 25879.856944                       # average overall mshr miss latency
system.cpu.itb_walker_cache.tags.pwrStateResidencyTicks::UNDEFINED 957877029500                       # Cumulative time (in ticks) in various power states
system.cpu.itb_walker_cache.tags.replacements            0                       # number of replacements
system.cpu.itb_walker_cache.tags.tagsinuse            0                       # Cycle average of tags in use
system.cpu.itb_walker_cache.tags.total_refs            0                       # Total number of references to valid blocks.
system.cpu.itb_walker_cache.tags.sampled_refs            0                       # Sample count of references to valid blocks.
system.cpu.itb_walker_cache.tags.avg_refs          nan                       # Average number of references to valid blocks.
system.cpu.itb_walker_cache.tags.warmup_cycle            0                       # Cycle when the warmup percentage was hit.
system.cpu.itb_walker_cache.tags.tag_accesses            0                       # Number of tag accesses
system.cpu.itb_walker_cache.tags.data_accesses            0                       # Number of data accesses
system.cpu.itb_walker_cache.pwrStateResidencyTicks::UNDEFINED 957877029500                       # Cumulative time (in ticks) in various power states
system.cpu.itb_walker_cache.blocked_cycles::no_mshrs            0                       # number of cycles access was blocked
system.cpu.itb_walker_cache.blocked_cycles::no_targets            0                       # number of cycles access was blocked
system.cpu.itb_walker_cache.blocked::no_mshrs            0                       # number of cycles access was blocked
system.cpu.itb_walker_cache.blocked::no_targets            0                       # number of cycles access was blocked
system.cpu.itb_walker_cache.avg_blocked_cycles::no_mshrs          nan                       # average number of cycles each access was blocked
system.cpu.itb_walker_cache.avg_blocked_cycles::no_targets          nan                       # average number of cycles each access was blocked
system.l2.tags.pwrStateResidencyTicks::UNDEFINED 957877029500                       # Cumulative time (in ticks) in various power states
system.l2.tags.replacements                      3734                       # number of replacements
system.l2.tags.tagsinuse                 10864.688042                       # Cycle average of tags in use
system.l2.tags.total_refs                      969812                       # Total number of references to valid blocks.
system.l2.tags.sampled_refs                     14677                       # Sample count of references to valid blocks.
system.l2.tags.avg_refs                     66.076991                       # Average number of references to valid blocks.
system.l2.tags.warmup_cycle                         0                       # Cycle when the warmup percentage was hit.
system.l2.tags.occ_blocks::writebacks       92.160794                       # Average occupied blocks per requestor
system.l2.tags.occ_blocks::cpu.inst       1894.052599                       # Average occupied blocks per requestor
system.l2.tags.occ_blocks::cpu.data       8878.474650                       # Average occupied blocks per requestor
system.l2.tags.occ_percent::writebacks       0.002813                       # Average percentage of cache occupancy
system.l2.tags.occ_percent::cpu.inst         0.057802                       # Average percentage of cache occupancy
system.l2.tags.occ_percent::cpu.data         0.270950                       # Average percentage of cache occupancy
system.l2.tags.occ_percent::total            0.331564                       # Average percentage of cache occupancy
system.l2.tags.occ_task_id_blocks::1024         10943                       # Occupied blocks per task id
system.l2.tags.age_task_id_blocks_1024::2            4                       # Occupied blocks per task id
system.l2.tags.age_task_id_blocks_1024::3            1                       # Occupied blocks per task id
system.l2.tags.age_task_id_blocks_1024::4        10938                       # Occupied blocks per task id
system.l2.tags.occ_task_id_percent::1024     0.333954                       # Percentage of cache occupancy per task id
system.l2.tags.tag_accesses                    999184                       # Number of tag accesses
system.l2.tags.data_accesses                   999184                       # Number of data accesses
system.l2.pwrStateResidencyTicks::UNDEFINED 957877029500                       # Cumulative time (in ticks) in various power states
system.l2.WritebackDirty_hits::writebacks       452209                       # number of WritebackDirty hits
system.l2.WritebackDirty_hits::total           452209                       # number of WritebackDirty hits
system.l2.WritebackClean_hits::writebacks        32027                       # number of WritebackClean hits
system.l2.WritebackClean_hits::total            32027                       # number of WritebackClean hits
system.l2.ReadExReq_hits::cpu.data             344141                       # number of ReadExReq hits
system.l2.ReadExReq_hits::total                344141                       # number of ReadExReq hits
system.l2.ReadCleanReq_hits::cpu.inst           29479                       # number of ReadCleanReq hits
system.l2.ReadCleanReq_hits::total              29479                       # number of ReadCleanReq hits
system.l2.ReadSharedReq_hits::cpu.data         108113                       # number of ReadSharedReq hits
system.l2.ReadSharedReq_hits::total            108113                       # number of ReadSharedReq hits
system.l2.demand_hits::cpu.inst                 29479                       # number of demand (read+write) hits
system.l2.demand_hits::cpu.data                452254                       # number of demand (read+write) hits
system.l2.demand_hits::total                   481733                       # number of demand (read+write) hits
system.l2.overall_hits::cpu.inst                29479                       # number of overall hits
system.l2.overall_hits::cpu.data               452254                       # number of overall hits
system.l2.overall_hits::total                  481733                       # number of overall hits
system.l2.ReadExReq_misses::cpu.data             7810                       # number of ReadExReq misses
system.l2.ReadExReq_misses::total                7810                       # number of ReadExReq misses
system.l2.ReadCleanReq_misses::cpu.inst          3515                       # number of ReadCleanReq misses
system.l2.ReadCleanReq_misses::total             3515                       # number of ReadCleanReq misses
system.l2.ReadSharedReq_misses::cpu.data         1727                       # number of ReadSharedReq misses
system.l2.ReadSharedReq_misses::total            1727                       # number of ReadSharedReq misses
system.l2.demand_misses::cpu.inst                3515                       # number of demand (read+write) misses
system.l2.demand_misses::cpu.data                9537                       # number of demand (read+write) misses
system.l2.demand_misses::total                  13052                       # number of demand (read+write) misses
system.l2.overall_misses::cpu.inst               3515                       # number of overall misses
system.l2.overall_misses::cpu.data               9537                       # number of overall misses
system.l2.overall_misses::total                 13052                       # number of overall misses
system.l2.ReadExReq_miss_latency::cpu.data    675636500                       # number of ReadExReq miss cycles
system.l2.ReadExReq_miss_latency::total     675636500                       # number of ReadExReq miss cycles
system.l2.ReadCleanReq_miss_latency::cpu.inst    494859500                       # number of ReadCleanReq miss cycles
system.l2.ReadCleanReq_miss_latency::total    494859500                       # number of ReadCleanReq miss cycles
system.l2.ReadSharedReq_miss_latency::cpu.data    156287000                       # number of ReadSharedReq miss cycles
system.l2.ReadSharedReq_miss_latency::total    156287000                       # number of ReadSharedReq miss cycles
system.l2.demand_miss_latency::cpu.inst     494859500                       # number of demand (read+write) miss cycles
system.l2.demand_miss_latency::cpu.data     831923500                       # number of demand (read+write) miss cycles
system.l2.demand_miss_latency::total       1326783000                       # number of demand (read+write) miss cycles
system.l2.overall_miss_latency::cpu.inst    494859500                       # number of overall miss cycles
system.l2.overall_miss_latency::cpu.data    831923500                       # number of overall miss cycles
system.l2.overall_miss_latency::total      1326783000                       # number of overall miss cycles
system.l2.WritebackDirty_accesses::writebacks       452209                       # number of WritebackDirty accesses(hits+misses)
system.l2.WritebackDirty_accesses::total       452209                       # number of WritebackDirty accesses(hits+misses)
system.l2.WritebackClean_accesses::writebacks        32027                       # number of WritebackClean accesses(hits+misses)
system.l2.WritebackClean_accesses::total        32027                       # number of WritebackClean accesses(hits+misses)
system.l2.ReadExReq_accesses::cpu.data         351951                       # number of ReadExReq accesses(hits+misses)
system.l2.ReadExReq_accesses::total            351951                       # number of ReadExReq accesses(hits+misses)
system.l2.ReadCleanReq_accesses::cpu.inst        32994                       # number of ReadCleanReq accesses(hits+misses)
system.l2.ReadCleanReq_accesses::total          32994                       # number of ReadCleanReq accesses(hits+misses)
system.l2.ReadSharedReq_accesses::cpu.data       109840                       # number of ReadSharedReq accesses(hits+misses)
system.l2.ReadSharedReq_accesses::total        109840                       # number of ReadSharedReq accesses(hits+misses)
system.l2.demand_accesses::cpu.inst             32994                       # number of demand (read+write) accesses
system.l2.demand_accesses::cpu.data            461791                       # number of demand (read+write) accesses
system.l2.demand_accesses::total               494785                       # number of demand (read+write) accesses
system.l2.overall_accesses::cpu.inst            32994                       # number of overall (read+write) accesses
system.l2.overall_accesses::cpu.data           461791                       # number of overall (read+write) accesses
system.l2.overall_accesses::total              494785                       # number of overall (read+write) accesses
system.l2.ReadExReq_miss_rate::cpu.data      0.022191                       # miss rate for ReadExReq accesses
system.l2.ReadExReq_miss_rate::total         0.022191                       # miss rate for ReadExReq accesses
system.l2.ReadCleanReq_miss_rate::cpu.inst     0.106535                       # miss rate for ReadCleanReq accesses
system.l2.ReadCleanReq_miss_rate::total      0.106535                       # miss rate for ReadCleanReq accesses
system.l2.ReadSharedReq_miss_rate::cpu.data     0.015723                       # miss rate for ReadSharedReq accesses
system.l2.ReadSharedReq_miss_rate::total     0.015723                       # miss rate for ReadSharedReq accesses
system.l2.demand_miss_rate::cpu.inst         0.106535                       # miss rate for demand accesses
system.l2.demand_miss_rate::cpu.data         0.020652                       # miss rate for demand accesses
system.l2.demand_miss_rate::total            0.026379                       # miss rate for demand accesses
system.l2.overall_miss_rate::cpu.inst        0.106535                       # miss rate for overall accesses
system.l2.overall_miss_rate::cpu.data        0.020652                       # miss rate for overall accesses
system.l2.overall_miss_rate::total           0.026379                       # miss rate for overall accesses
system.l2.ReadExReq_avg_miss_latency::cpu.data 86509.154930                       # average ReadExReq miss latency
system.l2.ReadExReq_avg_miss_latency::total 86509.154930                       # average ReadExReq miss latency
system.l2.ReadCleanReq_avg_miss_latency::cpu.inst 140785.064011                       # average ReadCleanReq miss latency
system.l2.ReadCleanReq_avg_miss_latency::total 140785.064011                       # average ReadCleanReq miss latency
system.l2.ReadSharedReq_avg_miss_latency::cpu.data 90496.236248                       # average ReadSharedReq miss latency
system.l2.ReadSharedReq_avg_miss_latency::total 90496.236248                       # average ReadSharedReq miss latency
system.l2.demand_avg_miss_latency::cpu.inst 140785.064011                       # average overall miss latency
system.l2.demand_avg_miss_latency::cpu.data 87231.152354                       # average overall miss latency
system.l2.demand_avg_miss_latency::total 101653.616304                       # average overall miss latency
system.l2.overall_avg_miss_latency::cpu.inst 140785.064011                       # average overall miss latency
system.l2.overall_avg_miss_latency::cpu.data 87231.152354                       # average overall miss latency
system.l2.overall_avg_miss_latency::total 101653.616304                       # average overall miss latency
system.l2.blocked_cycles::no_mshrs                  0                       # number of cycles access was blocked
system.l2.blocked_cycles::no_targets                0                       # number of cycles access was blocked
system.l2.blocked::no_mshrs                         0                       # number of cycles access was blocked
system.l2.blocked::no_targets                       0                       # number of cycles access was blocked
system.l2.avg_blocked_cycles::no_mshrs            nan                       # average number of cycles each access was blocked
system.l2.avg_blocked_cycles::no_targets          nan                       # average number of cycles each access was blocked
system.l2.writebacks::writebacks                  415                       # number of writebacks
system.l2.writebacks::total                       415                       # number of writebacks
system.l2.CleanEvict_mshr_misses::writebacks           18                       # number of CleanEvict MSHR misses
system.l2.CleanEvict_mshr_misses::total            18                       # number of CleanEvict MSHR misses
system.l2.ReadExReq_mshr_misses::cpu.data         7810                       # number of ReadExReq MSHR misses
system.l2.ReadExReq_mshr_misses::total           7810                       # number of ReadExReq MSHR misses
system.l2.ReadCleanReq_mshr_misses::cpu.inst         3515                       # number of ReadCleanReq MSHR misses
system.l2.ReadCleanReq_mshr_misses::total         3515                       # number of ReadCleanReq MSHR misses
system.l2.ReadSharedReq_mshr_misses::cpu.data         1727                       # number of ReadSharedReq MSHR misses
system.l2.ReadSharedReq_mshr_misses::total         1727                       # number of ReadSharedReq MSHR misses
system.l2.demand_mshr_misses::cpu.inst           3515                       # number of demand (read+write) MSHR misses
system.l2.demand_mshr_misses::cpu.data           9537                       # number of demand (read+write) MSHR misses
system.l2.demand_mshr_misses::total             13052                       # number of demand (read+write) MSHR misses
system.l2.overall_mshr_misses::cpu.inst          3515                       # number of overall MSHR misses
system.l2.overall_mshr_misses::cpu.data          9537                       # number of overall MSHR misses
system.l2.overall_mshr_misses::total            13052                       # number of overall MSHR misses
system.l2.ReadExReq_mshr_miss_latency::cpu.data    597536500                       # number of ReadExReq MSHR miss cycles
system.l2.ReadExReq_mshr_miss_latency::total    597536500                       # number of ReadExReq MSHR miss cycles
system.l2.ReadCleanReq_mshr_miss_latency::cpu.inst    459709500                       # number of ReadCleanReq MSHR miss cycles
system.l2.ReadCleanReq_mshr_miss_latency::total    459709500                       # number of ReadCleanReq MSHR miss cycles
system.l2.ReadSharedReq_mshr_miss_latency::cpu.data    139017000                       # number of ReadSharedReq MSHR miss cycles
system.l2.ReadSharedReq_mshr_miss_latency::total    139017000                       # number of ReadSharedReq MSHR miss cycles
system.l2.demand_mshr_miss_latency::cpu.inst    459709500                       # number of demand (read+write) MSHR miss cycles
system.l2.demand_mshr_miss_latency::cpu.data    736553500                       # number of demand (read+write) MSHR miss cycles
system.l2.demand_mshr_miss_latency::total   1196263000                       # number of demand (read+write) MSHR miss cycles
system.l2.overall_mshr_miss_latency::cpu.inst    459709500                       # number of overall MSHR miss cycles
system.l2.overall_mshr_miss_latency::cpu.data    736553500                       # number of overall MSHR miss cycles
system.l2.overall_mshr_miss_latency::total   1196263000                       # number of overall MSHR miss cycles
system.l2.CleanEvict_mshr_miss_rate::writebacks          inf                       # mshr miss rate for CleanEvict accesses
system.l2.CleanEvict_mshr_miss_rate::total          inf                       # mshr miss rate for CleanEvict accesses
system.l2.ReadExReq_mshr_miss_rate::cpu.data     0.022191                       # mshr miss rate for ReadExReq accesses
system.l2.ReadExReq_mshr_miss_rate::total     0.022191                       # mshr miss rate for ReadExReq accesses
system.l2.ReadCleanReq_mshr_miss_rate::cpu.inst     0.106535                       # mshr miss rate for ReadCleanReq accesses
system.l2.ReadCleanReq_mshr_miss_rate::total     0.106535                       # mshr miss rate for ReadCleanReq accesses
system.l2.ReadSharedReq_mshr_miss_rate::cpu.data     0.015723                       # mshr miss rate for ReadSharedReq accesses
system.l2.ReadSharedReq_mshr_miss_rate::total     0.015723                       # mshr miss rate for ReadSharedReq accesses
system.l2.demand_mshr_miss_rate::cpu.inst     0.106535                       # mshr miss rate for demand accesses
system.l2.demand_mshr_miss_rate::cpu.data     0.020652                       # mshr miss rate for demand accesses
system.l2.demand_mshr_miss_rate::total       0.026379                       # mshr miss rate for demand accesses
system.l2.overall_mshr_miss_rate::cpu.inst     0.106535                       # mshr miss rate for overall accesses
system.l2.overall_mshr_miss_rate::cpu.data     0.020652                       # mshr miss rate for overall accesses
system.l2.overall_mshr_miss_rate::total      0.026379                       # mshr miss rate for overall accesses
system.l2.ReadExReq_avg_mshr_miss_latency::cpu.data 76509.154930                       # average ReadExReq mshr miss latency
system.l2.ReadExReq_avg_mshr_miss_latency::total 76509.154930                       # average ReadExReq mshr miss latency
system.l2.ReadCleanReq_avg_mshr_miss_latency::cpu.inst 130785.064011                       # average ReadCleanReq mshr miss latency
system.l2.ReadCleanReq_avg_mshr_miss_latency::total 130785.064011                       # average ReadCleanReq mshr miss latency
system.l2.ReadSharedReq_avg_mshr_miss_latency::cpu.data 80496.236248                       # average ReadSharedReq mshr miss latency
system.l2.ReadSharedReq_avg_mshr_miss_latency::total 80496.236248                       # average ReadSharedReq mshr miss latency
system.l2.demand_avg_mshr_miss_latency::cpu.inst 130785.064011                       # average overall mshr miss latency
system.l2.demand_avg_mshr_miss_latency::cpu.data 77231.152354                       # average overall mshr miss latency
system.l2.demand_avg_mshr_miss_latency::total 91653.616304                       # average overall mshr miss latency
system.l2.overall_avg_mshr_miss_latency::cpu.inst 130785.064011                       # average overall mshr miss latency
system.l2.overall_avg_mshr_miss_latency::cpu.data 77231.152354                       # average overall mshr miss latency
system.l2.overall_avg_mshr_miss_latency::total 91653.616304                       # average overall mshr miss latency
system.membus.snoop_filter.tot_requests         15030                       # Total number of requests made to the snoop filter.
system.membus.snoop_filter.hit_single_requests         1978                       # Number of requests hitting in the snoop filter with a single holder of the requested data.
system.membus.snoop_filter.hit_multi_requests            0                       # Number of requests hitting in the snoop filter with multiple (>1) holders of the requested data.
system.membus.snoop_filter.tot_snoops               0                       # Total number of snoops made to the snoop filter.
system.membus.snoop_filter.hit_single_snoops            0                       # Number of snoops hitting in the snoop filter with a single holder of the requested data.
system.membus.snoop_filter.hit_multi_snoops            0                       # Number of snoops hitting in the snoop filter with multiple (>1) holders of the requested data.
system.membus.pwrStateResidencyTicks::UNDEFINED 957877029500                       # Cumulative time (in ticks) in various power states
system.membus.trans_dist::ReadResp               5242                       # Transaction distribution
system.membus.trans_dist::WritebackDirty          415                       # Transaction distribution
system.membus.trans_dist::CleanEvict             1563                       # Transaction distribution
system.membus.trans_dist::ReadExReq              7810                       # Transaction distribution
system.membus.trans_dist::ReadExResp             7810                       # Transaction distribution
system.membus.trans_dist::ReadSharedReq          5242                       # Transaction distribution
system.membus.pkt_count_system.l2.mem_side::system.mem_ctrls.port        28082                       # Packet count per connected master and slave (bytes)
system.membus.pkt_count_system.l2.mem_side::total        28082                       # Packet count per connected master and slave (bytes)
system.membus.pkt_count::total                  28082                       # Packet count per connected master and slave (bytes)
system.membus.pkt_size_system.l2.mem_side::system.mem_ctrls.port       430944                       # Cumulative packet size per connected master and slave (bytes)
system.membus.pkt_size_system.l2.mem_side::total       430944                       # Cumulative packet size per connected master and slave (bytes)
system.membus.pkt_size::total                  430944                       # Cumulative packet size per connected master and slave (bytes)
system.membus.snoops                                0                       # Total snoops (count)
system.membus.snoopTraffic                          0                       # Total snoop traffic (bytes)
system.membus.snoop_fanout::samples             13052                       # Request fanout histogram
system.membus.snoop_fanout::mean                    0                       # Request fanout histogram
system.membus.snoop_fanout::stdev                   0                       # Request fanout histogram
system.membus.snoop_fanout::underflows              0      0.00%      0.00% # Request fanout histogram
system.membus.snoop_fanout::0                   13052    100.00%    100.00% # Request fanout histogram
system.membus.snoop_fanout::1                       0      0.00%    100.00% # Request fanout histogram
system.membus.snoop_fanout::overflows               0      0.00%    100.00% # Request fanout histogram
system.membus.snoop_fanout::min_value               0                       # Request fanout histogram
system.membus.snoop_fanout::max_value               0                       # Request fanout histogram
system.membus.snoop_fanout::total               13052                       # Request fanout histogram
system.membus.reqLayer2.occupancy            15975000                       # Layer occupancy (ticks)
system.membus.reqLayer2.utilization               0.0                       # Layer utilization (%)
system.membus.respLayer1.occupancy           43365000                       # Layer occupancy (ticks)
system.membus.respLayer1.utilization              0.0                       # Layer utilization (%)
system.tol2bus.snoop_filter.tot_requests       984507                       # Total number of requests made to the snoop filter.
system.tol2bus.snoop_filter.hit_single_requests       489722                       # Number of requests hitting in the snoop filter with a single holder of the requested data.
system.tol2bus.snoop_filter.hit_multi_requests            0                       # Number of requests hitting in the snoop filter with multiple (>1) holders of the requested data.
system.tol2bus.snoop_filter.tot_snoops           1774                       # Total number of snoops made to the snoop filter.
system.tol2bus.snoop_filter.hit_single_snoops         1774                       # Number of snoops hitting in the snoop filter with a single holder of the requested data.
system.tol2bus.snoop_filter.hit_multi_snoops            0                       # Number of snoops hitting in the snoop filter with multiple (>1) holders of the requested data.
system.tol2bus.pwrStateResidencyTicks::UNDEFINED 957877029500                       # Cumulative time (in ticks) in various power states
system.tol2bus.trans_dist::ReadResp            142834                       # Transaction distribution
system.tol2bus.trans_dist::WritebackDirty       452624                       # Transaction distribution
system.tol2bus.trans_dist::WritebackClean        32027                       # Transaction distribution
system.tol2bus.trans_dist::CleanEvict            8805                       # Transaction distribution
system.tol2bus.trans_dist::ReadExReq           351951                       # Transaction distribution
system.tol2bus.trans_dist::ReadExResp          351951                       # Transaction distribution
system.tol2bus.trans_dist::ReadCleanReq         32994                       # Transaction distribution
system.tol2bus.trans_dist::ReadSharedReq       109840                       # Transaction distribution
system.tol2bus.pkt_count_system.cpu.icache.mem_side::system.l2.cpu_side        98015                       # Packet count per connected master and slave (bytes)
system.tol2bus.pkt_count_system.cpu.dcache.mem_side::system.l2.cpu_side      1381277                       # Packet count per connected master and slave (bytes)
system.tol2bus.pkt_count::total               1479292                       # Packet count per connected master and slave (bytes)
system.tol2bus.pkt_size_system.cpu.icache.mem_side::system.l2.cpu_side      2080672                       # Cumulative packet size per connected master and slave (bytes)
system.tol2bus.pkt_size_system.cpu.dcache.mem_side::system.l2.cpu_side     29248000                       # Cumulative packet size per connected master and slave (bytes)
system.tol2bus.pkt_size::total               31328672                       # Cumulative packet size per connected master and slave (bytes)
system.tol2bus.snoops                            3734                       # Total snoops (count)
system.tol2bus.snoopTraffic                     13280                       # Total snoop traffic (bytes)
system.tol2bus.snoop_fanout::samples           498519                       # Request fanout histogram
system.tol2bus.snoop_fanout::mean            0.003559                       # Request fanout histogram
system.tol2bus.snoop_fanout::stdev           0.059547                       # Request fanout histogram
system.tol2bus.snoop_fanout::underflows             0      0.00%      0.00% # Request fanout histogram
system.tol2bus.snoop_fanout::0                 496745     99.64%     99.64% # Request fanout histogram
system.tol2bus.snoop_fanout::1                   1774      0.36%    100.00% # Request fanout histogram
system.tol2bus.snoop_fanout::2                      0      0.00%    100.00% # Request fanout histogram
system.tol2bus.snoop_fanout::3                      0      0.00%    100.00% # Request fanout histogram
system.tol2bus.snoop_fanout::4                      0      0.00%    100.00% # Request fanout histogram
system.tol2bus.snoop_fanout::overflows              0      0.00%    100.00% # Request fanout histogram
system.tol2bus.snoop_fanout::min_value              0                       # Request fanout histogram
system.tol2bus.snoop_fanout::max_value              1                       # Request fanout histogram
system.tol2bus.snoop_fanout::total             498519                       # Request fanout histogram
system.tol2bus.reqLayer0.occupancy          734371500                       # Layer occupancy (ticks)
system.tol2bus.reqLayer0.utilization              0.1                       # Layer utilization (%)
system.tol2bus.respLayer0.occupancy          32994000                       # Layer occupancy (ticks)
system.tol2bus.respLayer0.utilization             0.0                       # Layer utilization (%)
system.tol2bus.respLayer1.occupancy         461791000                       # Layer occupancy (ticks)
system.tol2bus.respLayer1.utilization             0.0                       # Layer utilization (%)

---------- End Simulation Statistics   ----------
