
---------- Begin Simulation Statistics ----------
sim_seconds                                  2.405039                       # Number of seconds simulated
sim_ticks                                2405039093500                       # Number of ticks simulated
final_tick                               2405039093500                       # Number of ticks from beginning of simulation (restored from checkpoints and never reset)
sim_freq                                 1000000000000                       # Frequency of simulated ticks
host_inst_rate                                 484875                       # Simulator instruction rate (inst/s)
host_op_rate                                   798459                       # Simulator op (including micro ops) rate (op/s)
host_tick_rate                             2332284962                       # Simulator tick rate (ticks/s)
host_mem_usage                                 669968                       # Number of bytes of host memory used
host_seconds                                  1031.19                       # Real time elapsed on the host
sim_insts                                   500000000                       # Number of instructions simulated
sim_ops                                     823366692                       # Number of ops (including micro ops) simulated
system.voltage_domain.voltage                       1                       # Voltage in Volts
system.clk_domain.clock                          1000                       # Clock period in ticks
system.mem_ctrls.pwrStateResidencyTicks::UNDEFINED 2405039093500                       # Cumulative time (in ticks) in various power states
system.mem_ctrls.bytes_read::cpu.inst          116352                       # Number of bytes read from this memory
system.mem_ctrls.bytes_read::cpu.data       533392608                       # Number of bytes read from this memory
system.mem_ctrls.bytes_read::total          533508960                       # Number of bytes read from this memory
system.mem_ctrls.bytes_inst_read::cpu.inst       116352                       # Number of instructions bytes read from this memory
system.mem_ctrls.bytes_inst_read::total        116352                       # Number of instructions bytes read from this memory
system.mem_ctrls.bytes_written::writebacks    532012800                       # Number of bytes written to this memory
system.mem_ctrls.bytes_written::total       532012800                       # Number of bytes written to this memory
system.mem_ctrls.num_reads::cpu.inst             3636                       # Number of read requests responded to by this memory
system.mem_ctrls.num_reads::cpu.data         16668519                       # Number of read requests responded to by this memory
system.mem_ctrls.num_reads::total            16672155                       # Number of read requests responded to by this memory
system.mem_ctrls.num_writes::writebacks      16625400                       # Number of write requests responded to by this memory
system.mem_ctrls.num_writes::total           16625400                       # Number of write requests responded to by this memory
system.mem_ctrls.bw_read::cpu.inst              48378                       # Total read bandwidth from this memory (bytes/s)
system.mem_ctrls.bw_read::cpu.data          221781263                       # Total read bandwidth from this memory (bytes/s)
system.mem_ctrls.bw_read::total             221829642                       # Total read bandwidth from this memory (bytes/s)
system.mem_ctrls.bw_inst_read::cpu.inst         48378                       # Instruction read bandwidth from this memory (bytes/s)
system.mem_ctrls.bw_inst_read::total            48378                       # Instruction read bandwidth from this memory (bytes/s)
system.mem_ctrls.bw_write::writebacks       221207548                       # Write bandwidth from this memory (bytes/s)
system.mem_ctrls.bw_write::total            221207548                       # Write bandwidth from this memory (bytes/s)
system.mem_ctrls.bw_total::writebacks       221207548                       # Total bandwidth to/from this memory (bytes/s)
system.mem_ctrls.bw_total::cpu.inst             48378                       # Total bandwidth to/from this memory (bytes/s)
system.mem_ctrls.bw_total::cpu.data         221781263                       # Total bandwidth to/from this memory (bytes/s)
system.mem_ctrls.bw_total::total            443037189                       # Total bandwidth to/from this memory (bytes/s)
system.mem_ctrls.readReqs                    16672155                       # Number of read requests accepted
system.mem_ctrls.writeReqs                   16625400                       # Number of write requests accepted
system.mem_ctrls.readBursts                  16672155                       # Number of DRAM read bursts, including those serviced by the write queue
system.mem_ctrls.writeBursts                 16625400                       # Number of DRAM write bursts, including those merged in the write queue
system.mem_ctrls.bytesReadDRAM             1067015104                       # Total number of bytes read from DRAM
system.mem_ctrls.bytesReadWrQ                    2816                       # Total number of bytes read from write queue
system.mem_ctrls.bytesWritten               534549440                       # Total number of bytes written to DRAM
system.mem_ctrls.bytesReadSys               533508960                       # Total read bytes from the system interface side
system.mem_ctrls.bytesWrittenSys            532012800                       # Total written bytes from the system interface side
system.mem_ctrls.servicedByWrQ                     44                       # Number of DRAM read bursts serviced by the write queue
system.mem_ctrls.mergedWrBursts               8273033                       # Number of DRAM write bursts merged with an existing one
system.mem_ctrls.neitherReadNorWriteReqs            0                       # Number of requests that are neither read nor write
system.mem_ctrls.perBankRdBursts::0           1041775                       # Per bank write bursts
system.mem_ctrls.perBankRdBursts::1           1041447                       # Per bank write bursts
system.mem_ctrls.perBankRdBursts::2           1041719                       # Per bank write bursts
system.mem_ctrls.perBankRdBursts::3           1042368                       # Per bank write bursts
system.mem_ctrls.perBankRdBursts::4           1042216                       # Per bank write bursts
system.mem_ctrls.perBankRdBursts::5           1042216                       # Per bank write bursts
system.mem_ctrls.perBankRdBursts::6           1041758                       # Per bank write bursts
system.mem_ctrls.perBankRdBursts::7           1041744                       # Per bank write bursts
system.mem_ctrls.perBankRdBursts::8           1041297                       # Per bank write bursts
system.mem_ctrls.perBankRdBursts::9           1041679                       # Per bank write bursts
system.mem_ctrls.perBankRdBursts::10          1041926                       # Per bank write bursts
system.mem_ctrls.perBankRdBursts::11          1042759                       # Per bank write bursts
system.mem_ctrls.perBankRdBursts::12          1042479                       # Per bank write bursts
system.mem_ctrls.perBankRdBursts::13          1042383                       # Per bank write bursts
system.mem_ctrls.perBankRdBursts::14          1042115                       # Per bank write bursts
system.mem_ctrls.perBankRdBursts::15          1042230                       # Per bank write bursts
system.mem_ctrls.perBankWrBursts::0            521882                       # Per bank write bursts
system.mem_ctrls.perBankWrBursts::1            521696                       # Per bank write bursts
system.mem_ctrls.perBankWrBursts::2            521953                       # Per bank write bursts
system.mem_ctrls.perBankWrBursts::3            522317                       # Per bank write bursts
system.mem_ctrls.perBankWrBursts::4            522105                       # Per bank write bursts
system.mem_ctrls.perBankWrBursts::5            522173                       # Per bank write bursts
system.mem_ctrls.perBankWrBursts::6            521819                       # Per bank write bursts
system.mem_ctrls.perBankWrBursts::7            521966                       # Per bank write bursts
system.mem_ctrls.perBankWrBursts::8            521734                       # Per bank write bursts
system.mem_ctrls.perBankWrBursts::9            521907                       # Per bank write bursts
system.mem_ctrls.perBankWrBursts::10           521978                       # Per bank write bursts
system.mem_ctrls.perBankWrBursts::11           522213                       # Per bank write bursts
system.mem_ctrls.perBankWrBursts::12           522221                       # Per bank write bursts
system.mem_ctrls.perBankWrBursts::13           522265                       # Per bank write bursts
system.mem_ctrls.perBankWrBursts::14           522056                       # Per bank write bursts
system.mem_ctrls.perBankWrBursts::15           522050                       # Per bank write bursts
system.mem_ctrls.numRdRetry                         0                       # Number of times read queue was full causing retry
system.mem_ctrls.numWrRetry                         0                       # Number of times write queue was full causing retry
system.mem_ctrls.totGap                  2405015010500                       # Total gap between requests
system.mem_ctrls.readPktSize::0                     0                       # Read request sizes (log2)
system.mem_ctrls.readPktSize::1                     0                       # Read request sizes (log2)
system.mem_ctrls.readPktSize::2                     0                       # Read request sizes (log2)
system.mem_ctrls.readPktSize::3                     0                       # Read request sizes (log2)
system.mem_ctrls.readPktSize::4                     0                       # Read request sizes (log2)
system.mem_ctrls.readPktSize::5              16672155                       # Read request sizes (log2)
system.mem_ctrls.readPktSize::6                     0                       # Read request sizes (log2)
system.mem_ctrls.writePktSize::0                    0                       # Write request sizes (log2)
system.mem_ctrls.writePktSize::1                    0                       # Write request sizes (log2)
system.mem_ctrls.writePktSize::2                    0                       # Write request sizes (log2)
system.mem_ctrls.writePktSize::3                    0                       # Write request sizes (log2)
system.mem_ctrls.writePktSize::4                    0                       # Write request sizes (log2)
system.mem_ctrls.writePktSize::5             16625400                       # Write request sizes (log2)
system.mem_ctrls.writePktSize::6                    0                       # Write request sizes (log2)
system.mem_ctrls.rdQLenPdf::0                16672110                       # What read queue length does an incoming req see
system.mem_ctrls.rdQLenPdf::1                       1                       # What read queue length does an incoming req see
system.mem_ctrls.rdQLenPdf::2                       0                       # What read queue length does an incoming req see
system.mem_ctrls.rdQLenPdf::3                       0                       # What read queue length does an incoming req see
system.mem_ctrls.rdQLenPdf::4                       0                       # What read queue length does an incoming req see
system.mem_ctrls.rdQLenPdf::5                       0                       # What read queue length does an incoming req see
system.mem_ctrls.rdQLenPdf::6                       0                       # What read queue length does an incoming req see
system.mem_ctrls.rdQLenPdf::7                       0                       # What read queue length does an incoming req see
system.mem_ctrls.rdQLenPdf::8                       0                       # What read queue length does an incoming req see
system.mem_ctrls.rdQLenPdf::9                       0                       # What read queue length does an incoming req see
system.mem_ctrls.rdQLenPdf::10                      0                       # What read queue length does an incoming req see
system.mem_ctrls.rdQLenPdf::11                      0                       # What read queue length does an incoming req see
system.mem_ctrls.rdQLenPdf::12                      0                       # What read queue length does an incoming req see
system.mem_ctrls.rdQLenPdf::13                      0                       # What read queue length does an incoming req see
system.mem_ctrls.rdQLenPdf::14                      0                       # What read queue length does an incoming req see
system.mem_ctrls.rdQLenPdf::15                      0                       # What read queue length does an incoming req see
system.mem_ctrls.rdQLenPdf::16                      0                       # What read queue length does an incoming req see
system.mem_ctrls.rdQLenPdf::17                      0                       # What read queue length does an incoming req see
system.mem_ctrls.rdQLenPdf::18                      0                       # What read queue length does an incoming req see
system.mem_ctrls.rdQLenPdf::19                      0                       # What read queue length does an incoming req see
system.mem_ctrls.rdQLenPdf::20                      0                       # What read queue length does an incoming req see
system.mem_ctrls.rdQLenPdf::21                      0                       # What read queue length does an incoming req see
system.mem_ctrls.rdQLenPdf::22                      0                       # What read queue length does an incoming req see
system.mem_ctrls.rdQLenPdf::23                      0                       # What read queue length does an incoming req see
system.mem_ctrls.rdQLenPdf::24                      0                       # What read queue length does an incoming req see
system.mem_ctrls.rdQLenPdf::25                      0                       # What read queue length does an incoming req see
system.mem_ctrls.rdQLenPdf::26                      0                       # What read queue length does an incoming req see
system.mem_ctrls.rdQLenPdf::27                      0                       # What read queue length does an incoming req see
system.mem_ctrls.rdQLenPdf::28                      0                       # What read queue length does an incoming req see
system.mem_ctrls.rdQLenPdf::29                      0                       # What read queue length does an incoming req see
system.mem_ctrls.rdQLenPdf::30                      0                       # What read queue length does an incoming req see
system.mem_ctrls.rdQLenPdf::31                      0                       # What read queue length does an incoming req see
system.mem_ctrls.wrQLenPdf::0                       1                       # What write queue length does an incoming req see
system.mem_ctrls.wrQLenPdf::1                       1                       # What write queue length does an incoming req see
system.mem_ctrls.wrQLenPdf::2                       1                       # What write queue length does an incoming req see
system.mem_ctrls.wrQLenPdf::3                       1                       # What write queue length does an incoming req see
system.mem_ctrls.wrQLenPdf::4                       1                       # What write queue length does an incoming req see
system.mem_ctrls.wrQLenPdf::5                       1                       # What write queue length does an incoming req see
system.mem_ctrls.wrQLenPdf::6                       1                       # What write queue length does an incoming req see
system.mem_ctrls.wrQLenPdf::7                       1                       # What write queue length does an incoming req see
system.mem_ctrls.wrQLenPdf::8                       1                       # What write queue length does an incoming req see
system.mem_ctrls.wrQLenPdf::9                       1                       # What write queue length does an incoming req see
system.mem_ctrls.wrQLenPdf::10                      1                       # What write queue length does an incoming req see
system.mem_ctrls.wrQLenPdf::11                      1                       # What write queue length does an incoming req see
system.mem_ctrls.wrQLenPdf::12                      1                       # What write queue length does an incoming req see
system.mem_ctrls.wrQLenPdf::13                      1                       # What write queue length does an incoming req see
system.mem_ctrls.wrQLenPdf::14                      1                       # What write queue length does an incoming req see
system.mem_ctrls.wrQLenPdf::15                   3852                       # What write queue length does an incoming req see
system.mem_ctrls.wrQLenPdf::16                   4645                       # What write queue length does an incoming req see
system.mem_ctrls.wrQLenPdf::17                 521454                       # What write queue length does an incoming req see
system.mem_ctrls.wrQLenPdf::18                 521491                       # What write queue length does an incoming req see
system.mem_ctrls.wrQLenPdf::19                 521490                       # What write queue length does an incoming req see
system.mem_ctrls.wrQLenPdf::20                 521490                       # What write queue length does an incoming req see
system.mem_ctrls.wrQLenPdf::21                 521490                       # What write queue length does an incoming req see
system.mem_ctrls.wrQLenPdf::22                 521491                       # What write queue length does an incoming req see
system.mem_ctrls.wrQLenPdf::23                 521490                       # What write queue length does an incoming req see
system.mem_ctrls.wrQLenPdf::24                 521491                       # What write queue length does an incoming req see
system.mem_ctrls.wrQLenPdf::25                 521491                       # What write queue length does an incoming req see
system.mem_ctrls.wrQLenPdf::26                 521493                       # What write queue length does an incoming req see
system.mem_ctrls.wrQLenPdf::27                 521491                       # What write queue length does an incoming req see
system.mem_ctrls.wrQLenPdf::28                 521493                       # What write queue length does an incoming req see
system.mem_ctrls.wrQLenPdf::29                 521520                       # What write queue length does an incoming req see
system.mem_ctrls.wrQLenPdf::30                 521497                       # What write queue length does an incoming req see
system.mem_ctrls.wrQLenPdf::31                 521494                       # What write queue length does an incoming req see
system.mem_ctrls.wrQLenPdf::32                 521489                       # What write queue length does an incoming req see
system.mem_ctrls.wrQLenPdf::33                      0                       # What write queue length does an incoming req see
system.mem_ctrls.wrQLenPdf::34                      0                       # What write queue length does an incoming req see
system.mem_ctrls.wrQLenPdf::35                      0                       # What write queue length does an incoming req see
system.mem_ctrls.wrQLenPdf::36                      0                       # What write queue length does an incoming req see
system.mem_ctrls.wrQLenPdf::37                      0                       # What write queue length does an incoming req see
system.mem_ctrls.wrQLenPdf::38                      0                       # What write queue length does an incoming req see
system.mem_ctrls.wrQLenPdf::39                      0                       # What write queue length does an incoming req see
system.mem_ctrls.wrQLenPdf::40                      0                       # What write queue length does an incoming req see
system.mem_ctrls.wrQLenPdf::41                      0                       # What write queue length does an incoming req see
system.mem_ctrls.wrQLenPdf::42                      0                       # What write queue length does an incoming req see
system.mem_ctrls.wrQLenPdf::43                      0                       # What write queue length does an incoming req see
system.mem_ctrls.wrQLenPdf::44                      0                       # What write queue length does an incoming req see
system.mem_ctrls.wrQLenPdf::45                      0                       # What write queue length does an incoming req see
system.mem_ctrls.wrQLenPdf::46                      0                       # What write queue length does an incoming req see
system.mem_ctrls.wrQLenPdf::47                      0                       # What write queue length does an incoming req see
system.mem_ctrls.wrQLenPdf::48                      0                       # What write queue length does an incoming req see
system.mem_ctrls.wrQLenPdf::49                      0                       # What write queue length does an incoming req see
system.mem_ctrls.wrQLenPdf::50                      0                       # What write queue length does an incoming req see
system.mem_ctrls.wrQLenPdf::51                      0                       # What write queue length does an incoming req see
system.mem_ctrls.wrQLenPdf::52                      0                       # What write queue length does an incoming req see
system.mem_ctrls.wrQLenPdf::53                      0                       # What write queue length does an incoming req see
system.mem_ctrls.wrQLenPdf::54                      0                       # What write queue length does an incoming req see
system.mem_ctrls.wrQLenPdf::55                      0                       # What write queue length does an incoming req see
system.mem_ctrls.wrQLenPdf::56                      0                       # What write queue length does an incoming req see
system.mem_ctrls.wrQLenPdf::57                      0                       # What write queue length does an incoming req see
system.mem_ctrls.wrQLenPdf::58                      0                       # What write queue length does an incoming req see
system.mem_ctrls.wrQLenPdf::59                      0                       # What write queue length does an incoming req see
system.mem_ctrls.wrQLenPdf::60                      0                       # What write queue length does an incoming req see
system.mem_ctrls.wrQLenPdf::61                      0                       # What write queue length does an incoming req see
system.mem_ctrls.wrQLenPdf::62                      0                       # What write queue length does an incoming req see
system.mem_ctrls.wrQLenPdf::63                      0                       # What write queue length does an incoming req see
system.mem_ctrls.bytesPerActivate::samples      2016423                       # Bytes accessed per row activation
system.mem_ctrls.bytesPerActivate::mean    794.260204                       # Bytes accessed per row activation
system.mem_ctrls.bytesPerActivate::gmean   612.833107                       # Bytes accessed per row activation
system.mem_ctrls.bytesPerActivate::stdev   355.941477                       # Bytes accessed per row activation
system.mem_ctrls.bytesPerActivate::0-127       239803     11.89%     11.89% # Bytes accessed per row activation
system.mem_ctrls.bytesPerActivate::128-255        61913      3.07%     14.96% # Bytes accessed per row activation
system.mem_ctrls.bytesPerActivate::256-383        64756      3.21%     18.17% # Bytes accessed per row activation
system.mem_ctrls.bytesPerActivate::384-511        71256      3.53%     21.71% # Bytes accessed per row activation
system.mem_ctrls.bytesPerActivate::512-639        98498      4.88%     26.59% # Bytes accessed per row activation
system.mem_ctrls.bytesPerActivate::640-767        65238      3.24%     29.83% # Bytes accessed per row activation
system.mem_ctrls.bytesPerActivate::768-895        55150      2.74%     32.56% # Bytes accessed per row activation
system.mem_ctrls.bytesPerActivate::896-1023        92726      4.60%     37.16% # Bytes accessed per row activation
system.mem_ctrls.bytesPerActivate::1024-1151      1267083     62.84%    100.00% # Bytes accessed per row activation
system.mem_ctrls.bytesPerActivate::total      2016423                       # Bytes accessed per row activation
system.mem_ctrls.rdPerTurnAround::samples       521489                       # Reads before turning the bus around for writes
system.mem_ctrls.rdPerTurnAround::mean      31.970164                       # Reads before turning the bus around for writes
system.mem_ctrls.rdPerTurnAround::gmean     31.884239                       # Reads before turning the bus around for writes
system.mem_ctrls.rdPerTurnAround::stdev     32.648776                       # Reads before turning the bus around for writes
system.mem_ctrls.rdPerTurnAround::0-1023       521486    100.00%    100.00% # Reads before turning the bus around for writes
system.mem_ctrls.rdPerTurnAround::2048-3071            2      0.00%    100.00% # Reads before turning the bus around for writes
system.mem_ctrls.rdPerTurnAround::22528-23551            1      0.00%    100.00% # Reads before turning the bus around for writes
system.mem_ctrls.rdPerTurnAround::total        521489                       # Reads before turning the bus around for writes
system.mem_ctrls.wrPerTurnAround::samples       521489                       # Writes before turning the bus around for reads
system.mem_ctrls.wrPerTurnAround::mean      16.016321                       # Writes before turning the bus around for reads
system.mem_ctrls.wrPerTurnAround::gmean     16.015426                       # Writes before turning the bus around for reads
system.mem_ctrls.wrPerTurnAround::stdev      0.175883                       # Writes before turning the bus around for reads
system.mem_ctrls.wrPerTurnAround::16           516843     99.11%     99.11% # Writes before turning the bus around for reads
system.mem_ctrls.wrPerTurnAround::17              795      0.15%     99.26% # Writes before turning the bus around for reads
system.mem_ctrls.wrPerTurnAround::18             3838      0.74%    100.00% # Writes before turning the bus around for reads
system.mem_ctrls.wrPerTurnAround::19               12      0.00%    100.00% # Writes before turning the bus around for reads
system.mem_ctrls.wrPerTurnAround::20                1      0.00%    100.00% # Writes before turning the bus around for reads
system.mem_ctrls.wrPerTurnAround::total        521489                       # Writes before turning the bus around for reads
system.mem_ctrls.totQLat                 248058333750                       # Total ticks spent queuing
system.mem_ctrls.totMemAccLat            560660415000                       # Total ticks spent from burst creation until serviced by the DRAM
system.mem_ctrls.totBusLat                83360555000                       # Total ticks spent in databus transfers
system.mem_ctrls.avgQLat                     14878.64                       # Average queueing delay per DRAM burst
system.mem_ctrls.avgBusLat                    5000.00                       # Average bus latency per DRAM burst
system.mem_ctrls.avgMemAccLat                33628.64                       # Average memory access latency per DRAM burst
system.mem_ctrls.avgRdBW                       443.66                       # Average DRAM read bandwidth in MiByte/s
system.mem_ctrls.avgWrBW                       222.26                       # Average achieved write bandwidth in MiByte/s
system.mem_ctrls.avgRdBWSys                    221.83                       # Average system read bandwidth in MiByte/s
system.mem_ctrls.avgWrBWSys                    221.21                       # Average system write bandwidth in MiByte/s
system.mem_ctrls.peakBW                      12800.00                       # Theoretical peak bandwidth in MiByte/s
system.mem_ctrls.busUtil                         5.20                       # Data bus utilization in percentage
system.mem_ctrls.busUtilRead                     3.47                       # Data bus utilization in percentage for reads
system.mem_ctrls.busUtilWrite                    1.74                       # Data bus utilization in percentage for writes
system.mem_ctrls.avgRdQLen                       1.00                       # Average read queue length when enqueuing
system.mem_ctrls.avgWrQLen                      25.33                       # Average write queue length when enqueuing
system.mem_ctrls.readRowHits                 15305973                       # Number of row buffer hits during reads
system.mem_ctrls.writeRowHits                 7702050                       # Number of row buffer hits during writes
system.mem_ctrls.readRowHitRate                 91.81                       # Row buffer hit rate for reads
system.mem_ctrls.writeRowHitRate                92.21                       # Row buffer hit rate for writes
system.mem_ctrls.avgGap                      72227.98                       # Average gap between requests
system.mem_ctrls.pageHitRate                    91.94                       # Row buffer hit rate, read and write combined
system.mem_ctrls_0.actEnergy               7202610660                       # Energy for activate commands per rank (pJ)
system.mem_ctrls_0.preEnergy               3828278355                       # Energy for precharge commands per rank (pJ)
system.mem_ctrls_0.readEnergy             59513635020                       # Energy for read commands per rank (pJ)
system.mem_ctrls_0.writeEnergy            21798255420                       # Energy for write commands per rank (pJ)
system.mem_ctrls_0.refreshEnergy         114497597760.000031                       # Energy for refresh commands per rank (pJ)
system.mem_ctrls_0.actBackEnergy         147721524900                       # Energy for active background per rank (pJ)
system.mem_ctrls_0.preBackEnergy           8870096640                       # Energy for precharge background per rank (pJ)
system.mem_ctrls_0.actPowerDownEnergy    297931980450                       # Energy for active power-down per rank (pJ)
system.mem_ctrls_0.prePowerDownEnergy     95532406080                       # Energy for precharge power-down per rank (pJ)
system.mem_ctrls_0.selfRefreshEnergy     292740176475                       # Energy for self refresh per rank (pJ)
system.mem_ctrls_0.totalEnergy           1049660626080                       # Total energy per rank (pJ)
system.mem_ctrls_0.averagePower            436.442229                       # Core power per rank (mW)
system.mem_ctrls_0.totalIdleTime         2057920280250                       # Total Idle time Per DRAM Rank
system.mem_ctrls_0.memoryStateTime::IDLE  10031659250                       # Time in different power states
system.mem_ctrls_0.memoryStateTime::REF   48615856000                       # Time in different power states
system.mem_ctrls_0.memoryStateTime::SREF 1155793970500                       # Time in different power states
system.mem_ctrls_0.memoryStateTime::PRE_PDN 248777935000                       # Time in different power states
system.mem_ctrls_0.memoryStateTime::ACT  288462559500                       # Time in different power states
system.mem_ctrls_0.memoryStateTime::ACT_PDN 653357113250                       # Time in different power states
system.mem_ctrls_1.actEnergy               7194649560                       # Energy for activate commands per rank (pJ)
system.mem_ctrls_1.preEnergy               3824046930                       # Energy for precharge commands per rank (pJ)
system.mem_ctrls_1.readEnergy             59525237520                       # Energy for read commands per rank (pJ)
system.mem_ctrls_1.writeEnergy            21800933280                       # Energy for write commands per rank (pJ)
system.mem_ctrls_1.refreshEnergy         114043378800.000031                       # Energy for refresh commands per rank (pJ)
system.mem_ctrls_1.actBackEnergy         147733008690                       # Energy for active background per rank (pJ)
system.mem_ctrls_1.preBackEnergy           8841338400                       # Energy for precharge background per rank (pJ)
system.mem_ctrls_1.actPowerDownEnergy    297296452110                       # Energy for active power-down per rank (pJ)
system.mem_ctrls_1.prePowerDownEnergy     94637270880                       # Energy for precharge power-down per rank (pJ)
system.mem_ctrls_1.selfRefreshEnergy     293494738560                       # Energy for self refresh per rank (pJ)
system.mem_ctrls_1.totalEnergy           1048415094150                       # Total energy per rank (pJ)
system.mem_ctrls_1.averagePower            435.924344                       # Core power per rank (mW)
system.mem_ctrls_1.totalIdleTime         2057968824250                       # Total Idle time Per DRAM Rank
system.mem_ctrls_1.memoryStateTime::IDLE   9965036250                       # Time in different power states
system.mem_ctrls_1.memoryStateTime::REF   48422306000                       # Time in different power states
system.mem_ctrls_1.memoryStateTime::SREF 1159568691000                       # Time in different power states
system.mem_ctrls_1.memoryStateTime::PRE_PDN 246446823750                       # Time in different power states
system.mem_ctrls_1.memoryStateTime::ACT  288672577000                       # Time in different power states
system.mem_ctrls_1.memoryStateTime::ACT_PDN 651963659500                       # Time in different power states
system.pwrStateResidencyTicks::UNDEFINED 2405039093500                       # Cumulative time (in ticks) in various power states
system.cpu_voltage_domain.voltage                   1                       # Voltage in Volts
system.cpu_clk_domain.clock                       500                       # Clock period in ticks
system.cpu.dtb.walker.pwrStateResidencyTicks::UNDEFINED 2405039093500                       # Cumulative time (in ticks) in various power states
system.cpu.apic_clk_domain.clock                 8000                       # Clock period in ticks
system.cpu.interrupts.pwrStateResidencyTicks::UNDEFINED 2405039093500                       # Cumulative time (in ticks) in various power states
system.cpu.itb.walker.pwrStateResidencyTicks::UNDEFINED 2405039093500                       # Cumulative time (in ticks) in various power states
system.cpu.workload.num_syscalls                  196                       # Number of system calls
system.cpu.pwrStateResidencyTicks::ON    2405039093500                       # Cumulative time (in ticks) in various power states
system.cpu.numCycles                       4810078187                       # number of cpu cycles simulated
system.cpu.numWorkItemsStarted                      0                       # number of work items this cpu started
system.cpu.numWorkItemsCompleted                    0                       # number of work items this cpu completed
system.cpu.committedInsts                   500000000                       # Number of instructions committed
system.cpu.committedOps                     823366692                       # Number of ops (including micro ops) committed
system.cpu.num_int_alu_accesses             821415783                       # Number of integer alu accesses
system.cpu.num_fp_alu_accesses               66619246                       # Number of float alu accesses
system.cpu.num_func_calls                     5652773                       # number of times a function call or return occured
system.cpu.num_conditional_control_insts     57208853                       # number of instructions that are conditional controls
system.cpu.num_int_insts                    821415783                       # number of integer instructions
system.cpu.num_fp_insts                      66619246                       # number of float instructions
system.cpu.num_int_register_reads          1637209917                       # number of times the integer registers were read
system.cpu.num_int_register_writes          639871082                       # number of times the integer registers were written
system.cpu.num_fp_register_reads             66766836                       # number of times the floating registers were read
system.cpu.num_fp_register_writes              208042                       # number of times the floating registers were written
system.cpu.num_cc_register_reads            319714243                       # number of times the CC registers were read
system.cpu.num_cc_register_writes           287984022                       # number of times the CC registers were written
system.cpu.num_mem_refs                     271673939                       # number of memory refs
system.cpu.num_load_insts                   157213791                       # Number of load instructions
system.cpu.num_store_insts                  114460148                       # Number of store instructions
system.cpu.num_idle_cycles                          0                       # Number of idle cycles
system.cpu.num_busy_cycles                 4810078187                       # Number of busy cycles
system.cpu.not_idle_fraction                        1                       # Percentage of non-idle cycles
system.cpu.idle_fraction                            0                       # Percentage of idle cycles
system.cpu.Branches                          69678400                       # Number of branches fetched
system.cpu.op_class::No_OpClass                202234      0.02%      0.02% # Class of executed instruction
system.cpu.op_class::IntAlu                 550028817     66.80%     66.83% # Class of executed instruction
system.cpu.op_class::IntMult                   125092      0.02%     66.84% # Class of executed instruction
system.cpu.op_class::IntDiv                   1153479      0.14%     66.98% # Class of executed instruction
system.cpu.op_class::FloatAdd                  183131      0.02%     67.00% # Class of executed instruction
system.cpu.op_class::FloatCmp                       0      0.00%     67.00% # Class of executed instruction
system.cpu.op_class::FloatCvt                       0      0.00%     67.00% # Class of executed instruction
system.cpu.op_class::FloatMult                      0      0.00%     67.00% # Class of executed instruction
system.cpu.op_class::FloatDiv                       0      0.00%     67.00% # Class of executed instruction
system.cpu.op_class::FloatSqrt                      0      0.00%     67.00% # Class of executed instruction
system.cpu.op_class::SimdAdd                        0      0.00%     67.00% # Class of executed instruction
system.cpu.op_class::SimdAddAcc                     0      0.00%     67.00% # Class of executed instruction
system.cpu.op_class::SimdAlu                        0      0.00%     67.00% # Class of executed instruction
system.cpu.op_class::SimdCmp                        0      0.00%     67.00% # Class of executed instruction
system.cpu.op_class::SimdCvt                        0      0.00%     67.00% # Class of executed instruction
system.cpu.op_class::SimdMisc                       0      0.00%     67.00% # Class of executed instruction
system.cpu.op_class::SimdMult                       0      0.00%     67.00% # Class of executed instruction
system.cpu.op_class::SimdMultAcc                    0      0.00%     67.00% # Class of executed instruction
system.cpu.op_class::SimdShift                      0      0.00%     67.00% # Class of executed instruction
system.cpu.op_class::SimdShiftAcc                   0      0.00%     67.00% # Class of executed instruction
system.cpu.op_class::SimdSqrt                       0      0.00%     67.00% # Class of executed instruction
system.cpu.op_class::SimdFloatAdd                   0      0.00%     67.00% # Class of executed instruction
system.cpu.op_class::SimdFloatAlu                   0      0.00%     67.00% # Class of executed instruction
system.cpu.op_class::SimdFloatCmp                   0      0.00%     67.00% # Class of executed instruction
system.cpu.op_class::SimdFloatCvt                   0      0.00%     67.00% # Class of executed instruction
system.cpu.op_class::SimdFloatDiv                   0      0.00%     67.00% # Class of executed instruction
system.cpu.op_class::SimdFloatMisc                  0      0.00%     67.00% # Class of executed instruction
system.cpu.op_class::SimdFloatMult                  0      0.00%     67.00% # Class of executed instruction
system.cpu.op_class::SimdFloatMultAcc               0      0.00%     67.00% # Class of executed instruction
system.cpu.op_class::SimdFloatSqrt                  0      0.00%     67.00% # Class of executed instruction
system.cpu.op_class::MemRead                157213791     19.09%     86.10% # Class of executed instruction
system.cpu.op_class::MemWrite               114460148     13.90%    100.00% # Class of executed instruction
system.cpu.op_class::IprAccess                      0      0.00%    100.00% # Class of executed instruction
system.cpu.op_class::InstPrefetch                   0      0.00%    100.00% # Class of executed instruction
system.cpu.op_class::total                  823366692                       # Class of executed instruction
system.cpu.dcache.tags.pwrStateResidencyTicks::UNDEFINED 2405039093500                       # Cumulative time (in ticks) in various power states
system.cpu.dcache.tags.replacements          16913102                       # number of replacements
system.cpu.dcache.tags.tagsinuse          4091.138564                       # Cycle average of tags in use
system.cpu.dcache.tags.total_refs           254757358                       # Total number of references to valid blocks.
system.cpu.dcache.tags.sampled_refs          16917198                       # Sample count of references to valid blocks.
system.cpu.dcache.tags.avg_refs             15.059075                       # Average number of references to valid blocks.
system.cpu.dcache.tags.warmup_cycle        8178485500                       # Cycle when the warmup percentage was hit.
system.cpu.dcache.tags.occ_blocks::cpu.data  4091.138564                       # Average occupied blocks per requestor
system.cpu.dcache.tags.occ_percent::cpu.data     0.998813                       # Average percentage of cache occupancy
system.cpu.dcache.tags.occ_percent::total     0.998813                       # Average percentage of cache occupancy
system.cpu.dcache.tags.occ_task_id_blocks::1024         4096                       # Occupied blocks per task id
system.cpu.dcache.tags.age_task_id_blocks_1024::0            1                       # Occupied blocks per task id
system.cpu.dcache.tags.age_task_id_blocks_1024::1           29                       # Occupied blocks per task id
system.cpu.dcache.tags.age_task_id_blocks_1024::2          143                       # Occupied blocks per task id
system.cpu.dcache.tags.age_task_id_blocks_1024::3          881                       # Occupied blocks per task id
system.cpu.dcache.tags.age_task_id_blocks_1024::4         3042                       # Occupied blocks per task id
system.cpu.dcache.tags.occ_task_id_percent::1024            1                       # Percentage of cache occupancy per task id
system.cpu.dcache.tags.tag_accesses         288591754                       # Number of tag accesses
system.cpu.dcache.tags.data_accesses        288591754                       # Number of data accesses
system.cpu.dcache.pwrStateResidencyTicks::UNDEFINED 2405039093500                       # Cumulative time (in ticks) in various power states
system.cpu.dcache.ReadReq_hits::cpu.data    156955857                       # number of ReadReq hits
system.cpu.dcache.ReadReq_hits::total       156955857                       # number of ReadReq hits
system.cpu.dcache.WriteReq_hits::cpu.data     97801501                       # number of WriteReq hits
system.cpu.dcache.WriteReq_hits::total       97801501                       # number of WriteReq hits
system.cpu.dcache.demand_hits::cpu.data     254757358                       # number of demand (read+write) hits
system.cpu.dcache.demand_hits::total        254757358                       # number of demand (read+write) hits
system.cpu.dcache.overall_hits::cpu.data    254757358                       # number of overall hits
system.cpu.dcache.overall_hits::total       254757358                       # number of overall hits
system.cpu.dcache.ReadReq_misses::cpu.data       258538                       # number of ReadReq misses
system.cpu.dcache.ReadReq_misses::total        258538                       # number of ReadReq misses
system.cpu.dcache.WriteReq_misses::cpu.data     16658660                       # number of WriteReq misses
system.cpu.dcache.WriteReq_misses::total     16658660                       # number of WriteReq misses
system.cpu.dcache.demand_misses::cpu.data     16917198                       # number of demand (read+write) misses
system.cpu.dcache.demand_misses::total       16917198                       # number of demand (read+write) misses
system.cpu.dcache.overall_misses::cpu.data     16917198                       # number of overall misses
system.cpu.dcache.overall_misses::total      16917198                       # number of overall misses
system.cpu.dcache.ReadReq_miss_latency::cpu.data  27893906000                       # number of ReadReq miss cycles
system.cpu.dcache.ReadReq_miss_latency::total  27893906000                       # number of ReadReq miss cycles
system.cpu.dcache.WriteReq_miss_latency::cpu.data 1423564920000                       # number of WriteReq miss cycles
system.cpu.dcache.WriteReq_miss_latency::total 1423564920000                       # number of WriteReq miss cycles
system.cpu.dcache.demand_miss_latency::cpu.data 1451458826000                       # number of demand (read+write) miss cycles
system.cpu.dcache.demand_miss_latency::total 1451458826000                       # number of demand (read+write) miss cycles
system.cpu.dcache.overall_miss_latency::cpu.data 1451458826000                       # number of overall miss cycles
system.cpu.dcache.overall_miss_latency::total 1451458826000                       # number of overall miss cycles
system.cpu.dcache.ReadReq_accesses::cpu.data    157214395                       # number of ReadReq accesses(hits+misses)
system.cpu.dcache.ReadReq_accesses::total    157214395                       # number of ReadReq accesses(hits+misses)
system.cpu.dcache.WriteReq_accesses::cpu.data    114460161                       # number of WriteReq accesses(hits+misses)
system.cpu.dcache.WriteReq_accesses::total    114460161                       # number of WriteReq accesses(hits+misses)
system.cpu.dcache.demand_accesses::cpu.data    271674556                       # number of demand (read+write) accesses
system.cpu.dcache.demand_accesses::total    271674556                       # number of demand (read+write) accesses
system.cpu.dcache.overall_accesses::cpu.data    271674556                       # number of overall (read+write) accesses
system.cpu.dcache.overall_accesses::total    271674556                       # number of overall (read+write) accesses
system.cpu.dcache.ReadReq_miss_rate::cpu.data     0.001644                       # miss rate for ReadReq accesses
system.cpu.dcache.ReadReq_miss_rate::total     0.001644                       # miss rate for ReadReq accesses
system.cpu.dcache.WriteReq_miss_rate::cpu.data     0.145541                       # miss rate for WriteReq accesses
system.cpu.dcache.WriteReq_miss_rate::total     0.145541                       # miss rate for WriteReq accesses
system.cpu.dcache.demand_miss_rate::cpu.data     0.062270                       # miss rate for demand accesses
system.cpu.dcache.demand_miss_rate::total     0.062270                       # miss rate for demand accesses
system.cpu.dcache.overall_miss_rate::cpu.data     0.062270                       # miss rate for overall accesses
system.cpu.dcache.overall_miss_rate::total     0.062270                       # miss rate for overall accesses
system.cpu.dcache.ReadReq_avg_miss_latency::cpu.data 107890.932861                       # average ReadReq miss latency
system.cpu.dcache.ReadReq_avg_miss_latency::total 107890.932861                       # average ReadReq miss latency
system.cpu.dcache.WriteReq_avg_miss_latency::cpu.data 85454.947757                       # average WriteReq miss latency
system.cpu.dcache.WriteReq_avg_miss_latency::total 85454.947757                       # average WriteReq miss latency
system.cpu.dcache.demand_avg_miss_latency::cpu.data 85797.826921                       # average overall miss latency
system.cpu.dcache.demand_avg_miss_latency::total 85797.826921                       # average overall miss latency
system.cpu.dcache.overall_avg_miss_latency::cpu.data 85797.826921                       # average overall miss latency
system.cpu.dcache.overall_avg_miss_latency::total 85797.826921                       # average overall miss latency
system.cpu.dcache.blocked_cycles::no_mshrs            0                       # number of cycles access was blocked
system.cpu.dcache.blocked_cycles::no_targets            0                       # number of cycles access was blocked
system.cpu.dcache.blocked::no_mshrs                 0                       # number of cycles access was blocked
system.cpu.dcache.blocked::no_targets               0                       # number of cycles access was blocked
system.cpu.dcache.avg_blocked_cycles::no_mshrs          nan                       # average number of cycles each access was blocked
system.cpu.dcache.avg_blocked_cycles::no_targets          nan                       # average number of cycles each access was blocked
system.cpu.dcache.writebacks::writebacks     16800067                       # number of writebacks
system.cpu.dcache.writebacks::total          16800067                       # number of writebacks
system.cpu.dcache.ReadReq_mshr_misses::cpu.data       258538                       # number of ReadReq MSHR misses
system.cpu.dcache.ReadReq_mshr_misses::total       258538                       # number of ReadReq MSHR misses
system.cpu.dcache.WriteReq_mshr_misses::cpu.data     16658660                       # number of WriteReq MSHR misses
system.cpu.dcache.WriteReq_mshr_misses::total     16658660                       # number of WriteReq MSHR misses
system.cpu.dcache.demand_mshr_misses::cpu.data     16917198                       # number of demand (read+write) MSHR misses
system.cpu.dcache.demand_mshr_misses::total     16917198                       # number of demand (read+write) MSHR misses
system.cpu.dcache.overall_mshr_misses::cpu.data     16917198                       # number of overall MSHR misses
system.cpu.dcache.overall_mshr_misses::total     16917198                       # number of overall MSHR misses
system.cpu.dcache.ReadReq_mshr_miss_latency::cpu.data  27635368000                       # number of ReadReq MSHR miss cycles
system.cpu.dcache.ReadReq_mshr_miss_latency::total  27635368000                       # number of ReadReq MSHR miss cycles
system.cpu.dcache.WriteReq_mshr_miss_latency::cpu.data 1406906260000                       # number of WriteReq MSHR miss cycles
system.cpu.dcache.WriteReq_mshr_miss_latency::total 1406906260000                       # number of WriteReq MSHR miss cycles
system.cpu.dcache.demand_mshr_miss_latency::cpu.data 1434541628000                       # number of demand (read+write) MSHR miss cycles
system.cpu.dcache.demand_mshr_miss_latency::total 1434541628000                       # number of demand (read+write) MSHR miss cycles
system.cpu.dcache.overall_mshr_miss_latency::cpu.data 1434541628000                       # number of overall MSHR miss cycles
system.cpu.dcache.overall_mshr_miss_latency::total 1434541628000                       # number of overall MSHR miss cycles
system.cpu.dcache.ReadReq_mshr_miss_rate::cpu.data     0.001644                       # mshr miss rate for ReadReq accesses
system.cpu.dcache.ReadReq_mshr_miss_rate::total     0.001644                       # mshr miss rate for ReadReq accesses
system.cpu.dcache.WriteReq_mshr_miss_rate::cpu.data     0.145541                       # mshr miss rate for WriteReq accesses
system.cpu.dcache.WriteReq_mshr_miss_rate::total     0.145541                       # mshr miss rate for WriteReq accesses
system.cpu.dcache.demand_mshr_miss_rate::cpu.data     0.062270                       # mshr miss rate for demand accesses
system.cpu.dcache.demand_mshr_miss_rate::total     0.062270                       # mshr miss rate for demand accesses
system.cpu.dcache.overall_mshr_miss_rate::cpu.data     0.062270                       # mshr miss rate for overall accesses
system.cpu.dcache.overall_mshr_miss_rate::total     0.062270                       # mshr miss rate for overall accesses
system.cpu.dcache.ReadReq_avg_mshr_miss_latency::cpu.data 106890.932861                       # average ReadReq mshr miss latency
system.cpu.dcache.ReadReq_avg_mshr_miss_latency::total 106890.932861                       # average ReadReq mshr miss latency
system.cpu.dcache.WriteReq_avg_mshr_miss_latency::cpu.data 84454.947757                       # average WriteReq mshr miss latency
system.cpu.dcache.WriteReq_avg_mshr_miss_latency::total 84454.947757                       # average WriteReq mshr miss latency
system.cpu.dcache.demand_avg_mshr_miss_latency::cpu.data 84797.826921                       # average overall mshr miss latency
system.cpu.dcache.demand_avg_mshr_miss_latency::total 84797.826921                       # average overall mshr miss latency
system.cpu.dcache.overall_avg_mshr_miss_latency::cpu.data 84797.826921                       # average overall mshr miss latency
system.cpu.dcache.overall_avg_mshr_miss_latency::total 84797.826921                       # average overall mshr miss latency
system.cpu.dtb_walker_cache.tags.pwrStateResidencyTicks::UNDEFINED 2405039093500                       # Cumulative time (in ticks) in various power states
system.cpu.dtb_walker_cache.tags.replacements            0                       # number of replacements
system.cpu.dtb_walker_cache.tags.tagsinuse            0                       # Cycle average of tags in use
system.cpu.dtb_walker_cache.tags.total_refs            0                       # Total number of references to valid blocks.
system.cpu.dtb_walker_cache.tags.sampled_refs            0                       # Sample count of references to valid blocks.
system.cpu.dtb_walker_cache.tags.avg_refs          nan                       # Average number of references to valid blocks.
system.cpu.dtb_walker_cache.tags.warmup_cycle            0                       # Cycle when the warmup percentage was hit.
system.cpu.dtb_walker_cache.tags.tag_accesses            0                       # Number of tag accesses
system.cpu.dtb_walker_cache.tags.data_accesses            0                       # Number of data accesses
system.cpu.dtb_walker_cache.pwrStateResidencyTicks::UNDEFINED 2405039093500                       # Cumulative time (in ticks) in various power states
system.cpu.dtb_walker_cache.blocked_cycles::no_mshrs            0                       # number of cycles access was blocked
system.cpu.dtb_walker_cache.blocked_cycles::no_targets            0                       # number of cycles access was blocked
system.cpu.dtb_walker_cache.blocked::no_mshrs            0                       # number of cycles access was blocked
system.cpu.dtb_walker_cache.blocked::no_targets            0                       # number of cycles access was blocked
system.cpu.dtb_walker_cache.avg_blocked_cycles::no_mshrs          nan                       # average number of cycles each access was blocked
system.cpu.dtb_walker_cache.avg_blocked_cycles::no_targets          nan                       # average number of cycles each access was blocked
system.cpu.icache.tags.pwrStateResidencyTicks::UNDEFINED 2405039093500                       # Cumulative time (in ticks) in various power states
system.cpu.icache.tags.replacements           1917289                       # number of replacements
system.cpu.icache.tags.tagsinuse          1137.975504                       # Cycle average of tags in use
system.cpu.icache.tags.total_refs           673434613                       # Total number of references to valid blocks.
system.cpu.icache.tags.sampled_refs           1919044                       # Sample count of references to valid blocks.
system.cpu.icache.tags.avg_refs            350.921924                       # Average number of references to valid blocks.
system.cpu.icache.tags.warmup_cycle                 0                       # Cycle when the warmup percentage was hit.
system.cpu.icache.tags.occ_blocks::cpu.inst  1137.975504                       # Average occupied blocks per requestor
system.cpu.icache.tags.occ_percent::cpu.inst     0.555652                       # Average percentage of cache occupancy
system.cpu.icache.tags.occ_percent::total     0.555652                       # Average percentage of cache occupancy
system.cpu.icache.tags.occ_task_id_blocks::1024         1755                       # Occupied blocks per task id
system.cpu.icache.tags.age_task_id_blocks_1024::0           12                       # Occupied blocks per task id
system.cpu.icache.tags.age_task_id_blocks_1024::1           80                       # Occupied blocks per task id
system.cpu.icache.tags.age_task_id_blocks_1024::2           28                       # Occupied blocks per task id
system.cpu.icache.tags.age_task_id_blocks_1024::3           36                       # Occupied blocks per task id
system.cpu.icache.tags.age_task_id_blocks_1024::4         1599                       # Occupied blocks per task id
system.cpu.icache.tags.occ_task_id_percent::1024     0.856934                       # Percentage of cache occupancy per task id
system.cpu.icache.tags.tag_accesses         677272701                       # Number of tag accesses
system.cpu.icache.tags.data_accesses        677272701                       # Number of data accesses
system.cpu.icache.pwrStateResidencyTicks::UNDEFINED 2405039093500                       # Cumulative time (in ticks) in various power states
system.cpu.icache.ReadReq_hits::cpu.inst    673434613                       # number of ReadReq hits
system.cpu.icache.ReadReq_hits::total       673434613                       # number of ReadReq hits
system.cpu.icache.demand_hits::cpu.inst     673434613                       # number of demand (read+write) hits
system.cpu.icache.demand_hits::total        673434613                       # number of demand (read+write) hits
system.cpu.icache.overall_hits::cpu.inst    673434613                       # number of overall hits
system.cpu.icache.overall_hits::total       673434613                       # number of overall hits
system.cpu.icache.ReadReq_misses::cpu.inst      1919044                       # number of ReadReq misses
system.cpu.icache.ReadReq_misses::total       1919044                       # number of ReadReq misses
system.cpu.icache.demand_misses::cpu.inst      1919044                       # number of demand (read+write) misses
system.cpu.icache.demand_misses::total        1919044                       # number of demand (read+write) misses
system.cpu.icache.overall_misses::cpu.inst      1919044                       # number of overall misses
system.cpu.icache.overall_misses::total       1919044                       # number of overall misses
system.cpu.icache.ReadReq_miss_latency::cpu.inst  25388709000                       # number of ReadReq miss cycles
system.cpu.icache.ReadReq_miss_latency::total  25388709000                       # number of ReadReq miss cycles
system.cpu.icache.demand_miss_latency::cpu.inst  25388709000                       # number of demand (read+write) miss cycles
system.cpu.icache.demand_miss_latency::total  25388709000                       # number of demand (read+write) miss cycles
system.cpu.icache.overall_miss_latency::cpu.inst  25388709000                       # number of overall miss cycles
system.cpu.icache.overall_miss_latency::total  25388709000                       # number of overall miss cycles
system.cpu.icache.ReadReq_accesses::cpu.inst    675353657                       # number of ReadReq accesses(hits+misses)
system.cpu.icache.ReadReq_accesses::total    675353657                       # number of ReadReq accesses(hits+misses)
system.cpu.icache.demand_accesses::cpu.inst    675353657                       # number of demand (read+write) accesses
system.cpu.icache.demand_accesses::total    675353657                       # number of demand (read+write) accesses
system.cpu.icache.overall_accesses::cpu.inst    675353657                       # number of overall (read+write) accesses
system.cpu.icache.overall_accesses::total    675353657                       # number of overall (read+write) accesses
system.cpu.icache.ReadReq_miss_rate::cpu.inst     0.002842                       # miss rate for ReadReq accesses
system.cpu.icache.ReadReq_miss_rate::total     0.002842                       # miss rate for ReadReq accesses
system.cpu.icache.demand_miss_rate::cpu.inst     0.002842                       # miss rate for demand accesses
system.cpu.icache.demand_miss_rate::total     0.002842                       # miss rate for demand accesses
system.cpu.icache.overall_miss_rate::cpu.inst     0.002842                       # miss rate for overall accesses
system.cpu.icache.overall_miss_rate::total     0.002842                       # miss rate for overall accesses
system.cpu.icache.ReadReq_avg_miss_latency::cpu.inst 13229.873312                       # average ReadReq miss latency
system.cpu.icache.ReadReq_avg_miss_latency::total 13229.873312                       # average ReadReq miss latency
system.cpu.icache.demand_avg_miss_latency::cpu.inst 13229.873312                       # average overall miss latency
system.cpu.icache.demand_avg_miss_latency::total 13229.873312                       # average overall miss latency
system.cpu.icache.overall_avg_miss_latency::cpu.inst 13229.873312                       # average overall miss latency
system.cpu.icache.overall_avg_miss_latency::total 13229.873312                       # average overall miss latency
system.cpu.icache.blocked_cycles::no_mshrs            0                       # number of cycles access was blocked
system.cpu.icache.blocked_cycles::no_targets            0                       # number of cycles access was blocked
system.cpu.icache.blocked::no_mshrs                 0                       # number of cycles access was blocked
system.cpu.icache.blocked::no_targets               0                       # number of cycles access was blocked
system.cpu.icache.avg_blocked_cycles::no_mshrs          nan                       # average number of cycles each access was blocked
system.cpu.icache.avg_blocked_cycles::no_targets          nan                       # average number of cycles each access was blocked
system.cpu.icache.writebacks::writebacks      1917289                       # number of writebacks
system.cpu.icache.writebacks::total           1917289                       # number of writebacks
system.cpu.icache.ReadReq_mshr_misses::cpu.inst      1919044                       # number of ReadReq MSHR misses
system.cpu.icache.ReadReq_mshr_misses::total      1919044                       # number of ReadReq MSHR misses
system.cpu.icache.demand_mshr_misses::cpu.inst      1919044                       # number of demand (read+write) MSHR misses
system.cpu.icache.demand_mshr_misses::total      1919044                       # number of demand (read+write) MSHR misses
system.cpu.icache.overall_mshr_misses::cpu.inst      1919044                       # number of overall MSHR misses
system.cpu.icache.overall_mshr_misses::total      1919044                       # number of overall MSHR misses
system.cpu.icache.ReadReq_mshr_miss_latency::cpu.inst  23469665000                       # number of ReadReq MSHR miss cycles
system.cpu.icache.ReadReq_mshr_miss_latency::total  23469665000                       # number of ReadReq MSHR miss cycles
system.cpu.icache.demand_mshr_miss_latency::cpu.inst  23469665000                       # number of demand (read+write) MSHR miss cycles
system.cpu.icache.demand_mshr_miss_latency::total  23469665000                       # number of demand (read+write) MSHR miss cycles
system.cpu.icache.overall_mshr_miss_latency::cpu.inst  23469665000                       # number of overall MSHR miss cycles
system.cpu.icache.overall_mshr_miss_latency::total  23469665000                       # number of overall MSHR miss cycles
system.cpu.icache.ReadReq_mshr_miss_rate::cpu.inst     0.002842                       # mshr miss rate for ReadReq accesses
system.cpu.icache.ReadReq_mshr_miss_rate::total     0.002842                       # mshr miss rate for ReadReq accesses
system.cpu.icache.demand_mshr_miss_rate::cpu.inst     0.002842                       # mshr miss rate for demand accesses
system.cpu.icache.demand_mshr_miss_rate::total     0.002842                       # mshr miss rate for demand accesses
system.cpu.icache.overall_mshr_miss_rate::cpu.inst     0.002842                       # mshr miss rate for overall accesses
system.cpu.icache.overall_mshr_miss_rate::total     0.002842                       # mshr miss rate for overall accesses
system.cpu.icache.ReadReq_avg_mshr_miss_latency::cpu.inst 12229.873312                       # average ReadReq mshr miss latency
system.cpu.icache.ReadReq_avg_mshr_miss_latency::total 12229.873312                       # average ReadReq mshr miss latency
system.cpu.icache.demand_avg_mshr_miss_latency::cpu.inst 12229.873312                       # average overall mshr miss latency
system.cpu.icache.demand_avg_mshr_miss_latency::total 12229.873312                       # average overall mshr miss latency
system.cpu.icache.overall_avg_mshr_miss_latency::cpu.inst 12229.873312                       # average overall mshr miss latency
system.cpu.icache.overall_avg_mshr_miss_latency::total 12229.873312                       # average overall mshr miss latency
system.cpu.itb_walker_cache.tags.pwrStateResidencyTicks::UNDEFINED 2405039093500                       # Cumulative time (in ticks) in various power states
system.cpu.itb_walker_cache.tags.replacements            0                       # number of replacements
system.cpu.itb_walker_cache.tags.tagsinuse            0                       # Cycle average of tags in use
system.cpu.itb_walker_cache.tags.total_refs            0                       # Total number of references to valid blocks.
system.cpu.itb_walker_cache.tags.sampled_refs            0                       # Sample count of references to valid blocks.
system.cpu.itb_walker_cache.tags.avg_refs          nan                       # Average number of references to valid blocks.
system.cpu.itb_walker_cache.tags.warmup_cycle            0                       # Cycle when the warmup percentage was hit.
system.cpu.itb_walker_cache.tags.tag_accesses            0                       # Number of tag accesses
system.cpu.itb_walker_cache.tags.data_accesses            0                       # Number of data accesses
system.cpu.itb_walker_cache.pwrStateResidencyTicks::UNDEFINED 2405039093500                       # Cumulative time (in ticks) in various power states
system.cpu.itb_walker_cache.blocked_cycles::no_mshrs            0                       # number of cycles access was blocked
system.cpu.itb_walker_cache.blocked_cycles::no_targets            0                       # number of cycles access was blocked
system.cpu.itb_walker_cache.blocked::no_mshrs            0                       # number of cycles access was blocked
system.cpu.itb_walker_cache.blocked::no_targets            0                       # number of cycles access was blocked
system.cpu.itb_walker_cache.avg_blocked_cycles::no_mshrs          nan                       # average number of cycles each access was blocked
system.cpu.itb_walker_cache.avg_blocked_cycles::no_targets          nan                       # average number of cycles each access was blocked
system.l2.tags.pwrStateResidencyTicks::UNDEFINED 2405039093500                       # Cumulative time (in ticks) in various power states
system.l2.tags.replacements                  16646877                       # number of replacements
system.l2.tags.tagsinuse                 32656.446011                       # Cycle average of tags in use
system.l2.tags.total_refs                    20985386                       # Total number of references to valid blocks.
system.l2.tags.sampled_refs                  16679645                       # Sample count of references to valid blocks.
system.l2.tags.avg_refs                      1.258143                       # Average number of references to valid blocks.
system.l2.tags.warmup_cycle               11061231000                       # Cycle when the warmup percentage was hit.
system.l2.tags.occ_blocks::writebacks      478.145651                       # Average occupied blocks per requestor
system.l2.tags.occ_blocks::cpu.inst        318.024202                       # Average occupied blocks per requestor
system.l2.tags.occ_blocks::cpu.data      31860.276159                       # Average occupied blocks per requestor
system.l2.tags.occ_percent::writebacks       0.014592                       # Average percentage of cache occupancy
system.l2.tags.occ_percent::cpu.inst         0.009705                       # Average percentage of cache occupancy
system.l2.tags.occ_percent::cpu.data         0.972298                       # Average percentage of cache occupancy
system.l2.tags.occ_percent::total            0.996596                       # Average percentage of cache occupancy
system.l2.tags.occ_task_id_blocks::1024         32768                       # Occupied blocks per task id
system.l2.tags.age_task_id_blocks_1024::1            8                       # Occupied blocks per task id
system.l2.tags.age_task_id_blocks_1024::2           95                       # Occupied blocks per task id
system.l2.tags.age_task_id_blocks_1024::3          955                       # Occupied blocks per task id
system.l2.tags.age_task_id_blocks_1024::4        31710                       # Occupied blocks per task id
system.l2.tags.occ_task_id_percent::1024            1                       # Percentage of cache occupancy per task id
system.l2.tags.tag_accesses                  92012911                       # Number of tag accesses
system.l2.tags.data_accesses                 92012911                       # Number of data accesses
system.l2.pwrStateResidencyTicks::UNDEFINED 2405039093500                       # Cumulative time (in ticks) in various power states
system.l2.WritebackDirty_hits::writebacks     16800067                       # number of WritebackDirty hits
system.l2.WritebackDirty_hits::total         16800067                       # number of WritebackDirty hits
system.l2.WritebackClean_hits::writebacks      1917289                       # number of WritebackClean hits
system.l2.WritebackClean_hits::total          1917289                       # number of WritebackClean hits
system.l2.ReadExReq_hits::cpu.data              70548                       # number of ReadExReq hits
system.l2.ReadExReq_hits::total                 70548                       # number of ReadExReq hits
system.l2.ReadCleanReq_hits::cpu.inst         1915408                       # number of ReadCleanReq hits
system.l2.ReadCleanReq_hits::total            1915408                       # number of ReadCleanReq hits
system.l2.ReadSharedReq_hits::cpu.data         178131                       # number of ReadSharedReq hits
system.l2.ReadSharedReq_hits::total            178131                       # number of ReadSharedReq hits
system.l2.demand_hits::cpu.inst               1915408                       # number of demand (read+write) hits
system.l2.demand_hits::cpu.data                248679                       # number of demand (read+write) hits
system.l2.demand_hits::total                  2164087                       # number of demand (read+write) hits
system.l2.overall_hits::cpu.inst              1915408                       # number of overall hits
system.l2.overall_hits::cpu.data               248679                       # number of overall hits
system.l2.overall_hits::total                 2164087                       # number of overall hits
system.l2.ReadExReq_misses::cpu.data         16588112                       # number of ReadExReq misses
system.l2.ReadExReq_misses::total            16588112                       # number of ReadExReq misses
system.l2.ReadCleanReq_misses::cpu.inst          3636                       # number of ReadCleanReq misses
system.l2.ReadCleanReq_misses::total             3636                       # number of ReadCleanReq misses
system.l2.ReadSharedReq_misses::cpu.data        80407                       # number of ReadSharedReq misses
system.l2.ReadSharedReq_misses::total           80407                       # number of ReadSharedReq misses
system.l2.demand_misses::cpu.inst                3636                       # number of demand (read+write) misses
system.l2.demand_misses::cpu.data            16668519                       # number of demand (read+write) misses
system.l2.demand_misses::total               16672155                       # number of demand (read+write) misses
system.l2.overall_misses::cpu.inst               3636                       # number of overall misses
system.l2.overall_misses::cpu.data           16668519                       # number of overall misses
system.l2.overall_misses::total              16672155                       # number of overall misses
system.l2.ReadExReq_miss_latency::cpu.data 1381177516000                       # number of ReadExReq miss cycles
system.l2.ReadExReq_miss_latency::total  1381177516000                       # number of ReadExReq miss cycles
system.l2.ReadCleanReq_miss_latency::cpu.inst    479315000                       # number of ReadCleanReq miss cycles
system.l2.ReadCleanReq_miss_latency::total    479315000                       # number of ReadCleanReq miss cycles
system.l2.ReadSharedReq_miss_latency::cpu.data  25377185000                       # number of ReadSharedReq miss cycles
system.l2.ReadSharedReq_miss_latency::total  25377185000                       # number of ReadSharedReq miss cycles
system.l2.demand_miss_latency::cpu.inst     479315000                       # number of demand (read+write) miss cycles
system.l2.demand_miss_latency::cpu.data  1406554701000                       # number of demand (read+write) miss cycles
system.l2.demand_miss_latency::total     1407034016000                       # number of demand (read+write) miss cycles
system.l2.overall_miss_latency::cpu.inst    479315000                       # number of overall miss cycles
system.l2.overall_miss_latency::cpu.data 1406554701000                       # number of overall miss cycles
system.l2.overall_miss_latency::total    1407034016000                       # number of overall miss cycles
system.l2.WritebackDirty_accesses::writebacks     16800067                       # number of WritebackDirty accesses(hits+misses)
system.l2.WritebackDirty_accesses::total     16800067                       # number of WritebackDirty accesses(hits+misses)
system.l2.WritebackClean_accesses::writebacks      1917289                       # number of WritebackClean accesses(hits+misses)
system.l2.WritebackClean_accesses::total      1917289                       # number of WritebackClean accesses(hits+misses)
system.l2.ReadExReq_accesses::cpu.data       16658660                       # number of ReadExReq accesses(hits+misses)
system.l2.ReadExReq_accesses::total          16658660                       # number of ReadExReq accesses(hits+misses)
system.l2.ReadCleanReq_accesses::cpu.inst      1919044                       # number of ReadCleanReq accesses(hits+misses)
system.l2.ReadCleanReq_accesses::total        1919044                       # number of ReadCleanReq accesses(hits+misses)
system.l2.ReadSharedReq_accesses::cpu.data       258538                       # number of ReadSharedReq accesses(hits+misses)
system.l2.ReadSharedReq_accesses::total        258538                       # number of ReadSharedReq accesses(hits+misses)
system.l2.demand_accesses::cpu.inst           1919044                       # number of demand (read+write) accesses
system.l2.demand_accesses::cpu.data          16917198                       # number of demand (read+write) accesses
system.l2.demand_accesses::total             18836242                       # number of demand (read+write) accesses
system.l2.overall_accesses::cpu.inst          1919044                       # number of overall (read+write) accesses
system.l2.overall_accesses::cpu.data         16917198                       # number of overall (read+write) accesses
system.l2.overall_accesses::total            18836242                       # number of overall (read+write) accesses
system.l2.ReadExReq_miss_rate::cpu.data      0.995765                       # miss rate for ReadExReq accesses
system.l2.ReadExReq_miss_rate::total         0.995765                       # miss rate for ReadExReq accesses
system.l2.ReadCleanReq_miss_rate::cpu.inst     0.001895                       # miss rate for ReadCleanReq accesses
system.l2.ReadCleanReq_miss_rate::total      0.001895                       # miss rate for ReadCleanReq accesses
system.l2.ReadSharedReq_miss_rate::cpu.data     0.311007                       # miss rate for ReadSharedReq accesses
system.l2.ReadSharedReq_miss_rate::total     0.311007                       # miss rate for ReadSharedReq accesses
system.l2.demand_miss_rate::cpu.inst         0.001895                       # miss rate for demand accesses
system.l2.demand_miss_rate::cpu.data         0.985300                       # miss rate for demand accesses
system.l2.demand_miss_rate::total            0.885110                       # miss rate for demand accesses
system.l2.overall_miss_rate::cpu.inst        0.001895                       # miss rate for overall accesses
system.l2.overall_miss_rate::cpu.data        0.985300                       # miss rate for overall accesses
system.l2.overall_miss_rate::total           0.885110                       # miss rate for overall accesses
system.l2.ReadExReq_avg_miss_latency::cpu.data 83263.093232                       # average ReadExReq miss latency
system.l2.ReadExReq_avg_miss_latency::total 83263.093232                       # average ReadExReq miss latency
system.l2.ReadCleanReq_avg_miss_latency::cpu.inst 131824.807481                       # average ReadCleanReq miss latency
system.l2.ReadCleanReq_avg_miss_latency::total 131824.807481                       # average ReadCleanReq miss latency
system.l2.ReadSharedReq_avg_miss_latency::cpu.data 315609.150945                       # average ReadSharedReq miss latency
system.l2.ReadSharedReq_avg_miss_latency::total 315609.150945                       # average ReadSharedReq miss latency
system.l2.demand_avg_miss_latency::cpu.inst 131824.807481                       # average overall miss latency
system.l2.demand_avg_miss_latency::cpu.data 84383.903633                       # average overall miss latency
system.l2.demand_avg_miss_latency::total 84394.249933                       # average overall miss latency
system.l2.overall_avg_miss_latency::cpu.inst 131824.807481                       # average overall miss latency
system.l2.overall_avg_miss_latency::cpu.data 84383.903633                       # average overall miss latency
system.l2.overall_avg_miss_latency::total 84394.249933                       # average overall miss latency
system.l2.blocked_cycles::no_mshrs                  0                       # number of cycles access was blocked
system.l2.blocked_cycles::no_targets                0                       # number of cycles access was blocked
system.l2.blocked::no_mshrs                         0                       # number of cycles access was blocked
system.l2.blocked::no_targets                       0                       # number of cycles access was blocked
system.l2.avg_blocked_cycles::no_mshrs            nan                       # average number of cycles each access was blocked
system.l2.avg_blocked_cycles::no_targets          nan                       # average number of cycles each access was blocked
system.l2.writebacks::writebacks             16625400                       # number of writebacks
system.l2.writebacks::total                  16625400                       # number of writebacks
system.l2.CleanEvict_mshr_misses::writebacks         1602                       # number of CleanEvict MSHR misses
system.l2.CleanEvict_mshr_misses::total          1602                       # number of CleanEvict MSHR misses
system.l2.ReadExReq_mshr_misses::cpu.data     16588112                       # number of ReadExReq MSHR misses
system.l2.ReadExReq_mshr_misses::total       16588112                       # number of ReadExReq MSHR misses
system.l2.ReadCleanReq_mshr_misses::cpu.inst         3636                       # number of ReadCleanReq MSHR misses
system.l2.ReadCleanReq_mshr_misses::total         3636                       # number of ReadCleanReq MSHR misses
system.l2.ReadSharedReq_mshr_misses::cpu.data        80407                       # number of ReadSharedReq MSHR misses
system.l2.ReadSharedReq_mshr_misses::total        80407                       # number of ReadSharedReq MSHR misses
system.l2.demand_mshr_misses::cpu.inst           3636                       # number of demand (read+write) MSHR misses
system.l2.demand_mshr_misses::cpu.data       16668519                       # number of demand (read+write) MSHR misses
system.l2.demand_mshr_misses::total          16672155                       # number of demand (read+write) MSHR misses
system.l2.overall_mshr_misses::cpu.inst          3636                       # number of overall MSHR misses
system.l2.overall_mshr_misses::cpu.data      16668519                       # number of overall MSHR misses
system.l2.overall_mshr_misses::total         16672155                       # number of overall MSHR misses
system.l2.ReadExReq_mshr_miss_latency::cpu.data 1215296396000                       # number of ReadExReq MSHR miss cycles
system.l2.ReadExReq_mshr_miss_latency::total 1215296396000                       # number of ReadExReq MSHR miss cycles
system.l2.ReadCleanReq_mshr_miss_latency::cpu.inst    442955000                       # number of ReadCleanReq MSHR miss cycles
system.l2.ReadCleanReq_mshr_miss_latency::total    442955000                       # number of ReadCleanReq MSHR miss cycles
system.l2.ReadSharedReq_mshr_miss_latency::cpu.data  24573115000                       # number of ReadSharedReq MSHR miss cycles
system.l2.ReadSharedReq_mshr_miss_latency::total  24573115000                       # number of ReadSharedReq MSHR miss cycles
system.l2.demand_mshr_miss_latency::cpu.inst    442955000                       # number of demand (read+write) MSHR miss cycles
system.l2.demand_mshr_miss_latency::cpu.data 1239869511000                       # number of demand (read+write) MSHR miss cycles
system.l2.demand_mshr_miss_latency::total 1240312466000                       # number of demand (read+write) MSHR miss cycles
system.l2.overall_mshr_miss_latency::cpu.inst    442955000                       # number of overall MSHR miss cycles
system.l2.overall_mshr_miss_latency::cpu.data 1239869511000                       # number of overall MSHR miss cycles
system.l2.overall_mshr_miss_latency::total 1240312466000                       # number of overall MSHR miss cycles
system.l2.CleanEvict_mshr_miss_rate::writebacks          inf                       # mshr miss rate for CleanEvict accesses
system.l2.CleanEvict_mshr_miss_rate::total          inf                       # mshr miss rate for CleanEvict accesses
system.l2.ReadExReq_mshr_miss_rate::cpu.data     0.995765                       # mshr miss rate for ReadExReq accesses
system.l2.ReadExReq_mshr_miss_rate::total     0.995765                       # mshr miss rate for ReadExReq accesses
system.l2.ReadCleanReq_mshr_miss_rate::cpu.inst     0.001895                       # mshr miss rate for ReadCleanReq accesses
system.l2.ReadCleanReq_mshr_miss_rate::total     0.001895                       # mshr miss rate for ReadCleanReq accesses
system.l2.ReadSharedReq_mshr_miss_rate::cpu.data     0.311007                       # mshr miss rate for ReadSharedReq accesses
system.l2.ReadSharedReq_mshr_miss_rate::total     0.311007                       # mshr miss rate for ReadSharedReq accesses
system.l2.demand_mshr_miss_rate::cpu.inst     0.001895                       # mshr miss rate for demand accesses
system.l2.demand_mshr_miss_rate::cpu.data     0.985300                       # mshr miss rate for demand accesses
system.l2.demand_mshr_miss_rate::total       0.885110                       # mshr miss rate for demand accesses
system.l2.overall_mshr_miss_rate::cpu.inst     0.001895                       # mshr miss rate for overall accesses
system.l2.overall_mshr_miss_rate::cpu.data     0.985300                       # mshr miss rate for overall accesses
system.l2.overall_mshr_miss_rate::total      0.885110                       # mshr miss rate for overall accesses
system.l2.ReadExReq_avg_mshr_miss_latency::cpu.data 73263.093232                       # average ReadExReq mshr miss latency
system.l2.ReadExReq_avg_mshr_miss_latency::total 73263.093232                       # average ReadExReq mshr miss latency
system.l2.ReadCleanReq_avg_mshr_miss_latency::cpu.inst 121824.807481                       # average ReadCleanReq mshr miss latency
system.l2.ReadCleanReq_avg_mshr_miss_latency::total 121824.807481                       # average ReadCleanReq mshr miss latency
system.l2.ReadSharedReq_avg_mshr_miss_latency::cpu.data 305609.150945                       # average ReadSharedReq mshr miss latency
system.l2.ReadSharedReq_avg_mshr_miss_latency::total 305609.150945                       # average ReadSharedReq mshr miss latency
system.l2.demand_avg_mshr_miss_latency::cpu.inst 121824.807481                       # average overall mshr miss latency
system.l2.demand_avg_mshr_miss_latency::cpu.data 74383.903633                       # average overall mshr miss latency
system.l2.demand_avg_mshr_miss_latency::total 74394.249933                       # average overall mshr miss latency
system.l2.overall_avg_mshr_miss_latency::cpu.inst 121824.807481                       # average overall mshr miss latency
system.l2.overall_avg_mshr_miss_latency::cpu.data 74383.903633                       # average overall mshr miss latency
system.l2.overall_avg_mshr_miss_latency::total 74394.249933                       # average overall mshr miss latency
system.membus.snoop_filter.tot_requests      33310184                       # Total number of requests made to the snoop filter.
system.membus.snoop_filter.hit_single_requests     16638029                       # Number of requests hitting in the snoop filter with a single holder of the requested data.
system.membus.snoop_filter.hit_multi_requests            0                       # Number of requests hitting in the snoop filter with multiple (>1) holders of the requested data.
system.membus.snoop_filter.tot_snoops               0                       # Total number of snoops made to the snoop filter.
system.membus.snoop_filter.hit_single_snoops            0                       # Number of snoops hitting in the snoop filter with a single holder of the requested data.
system.membus.snoop_filter.hit_multi_snoops            0                       # Number of snoops hitting in the snoop filter with multiple (>1) holders of the requested data.
system.membus.pwrStateResidencyTicks::UNDEFINED 2405039093500                       # Cumulative time (in ticks) in various power states
system.membus.trans_dist::ReadResp              84043                       # Transaction distribution
system.membus.trans_dist::WritebackDirty     16625400                       # Transaction distribution
system.membus.trans_dist::CleanEvict            12629                       # Transaction distribution
system.membus.trans_dist::ReadExReq          16588112                       # Transaction distribution
system.membus.trans_dist::ReadExResp         16588112                       # Transaction distribution
system.membus.trans_dist::ReadSharedReq         84043                       # Transaction distribution
system.membus.pkt_count_system.l2.mem_side::system.mem_ctrls.port     49982339                       # Packet count per connected master and slave (bytes)
system.membus.pkt_count_system.l2.mem_side::total     49982339                       # Packet count per connected master and slave (bytes)
system.membus.pkt_count::total               49982339                       # Packet count per connected master and slave (bytes)
system.membus.pkt_size_system.l2.mem_side::system.mem_ctrls.port   1065521760                       # Cumulative packet size per connected master and slave (bytes)
system.membus.pkt_size_system.l2.mem_side::total   1065521760                       # Cumulative packet size per connected master and slave (bytes)
system.membus.pkt_size::total              1065521760                       # Cumulative packet size per connected master and slave (bytes)
system.membus.snoops                                0                       # Total snoops (count)
system.membus.snoopTraffic                          0                       # Total snoop traffic (bytes)
system.membus.snoop_fanout::samples          16672155                       # Request fanout histogram
system.membus.snoop_fanout::mean                    0                       # Request fanout histogram
system.membus.snoop_fanout::stdev                   0                       # Request fanout histogram
system.membus.snoop_fanout::underflows              0      0.00%      0.00% # Request fanout histogram
system.membus.snoop_fanout::0                16672155    100.00%    100.00% # Request fanout histogram
system.membus.snoop_fanout::1                       0      0.00%    100.00% # Request fanout histogram
system.membus.snoop_fanout::overflows               0      0.00%    100.00% # Request fanout histogram
system.membus.snoop_fanout::min_value               0                       # Request fanout histogram
system.membus.snoop_fanout::max_value               0                       # Request fanout histogram
system.membus.snoop_fanout::total            16672155                       # Request fanout histogram
system.membus.reqLayer2.occupancy         66561002500                       # Layer occupancy (ticks)
system.membus.reqLayer2.utilization               2.8                       # Layer utilization (%)
system.membus.respLayer1.occupancy        54446457000                       # Layer occupancy (ticks)
system.membus.respLayer1.utilization              2.3                       # Layer utilization (%)
system.tol2bus.snoop_filter.tot_requests     37666633                       # Total number of requests made to the snoop filter.
system.tol2bus.snoop_filter.hit_single_requests     18830391                       # Number of requests hitting in the snoop filter with a single holder of the requested data.
system.tol2bus.snoop_filter.hit_multi_requests            0                       # Number of requests hitting in the snoop filter with multiple (>1) holders of the requested data.
system.tol2bus.snoop_filter.tot_snoops          10450                       # Total number of snoops made to the snoop filter.
system.tol2bus.snoop_filter.hit_single_snoops        10450                       # Number of snoops hitting in the snoop filter with a single holder of the requested data.
system.tol2bus.snoop_filter.hit_multi_snoops            0                       # Number of snoops hitting in the snoop filter with multiple (>1) holders of the requested data.
system.tol2bus.pwrStateResidencyTicks::UNDEFINED 2405039093500                       # Cumulative time (in ticks) in various power states
system.tol2bus.trans_dist::ReadResp           2177582                       # Transaction distribution
system.tol2bus.trans_dist::WritebackDirty     33425467                       # Transaction distribution
system.tol2bus.trans_dist::WritebackClean      1917289                       # Transaction distribution
system.tol2bus.trans_dist::CleanEvict          134512                       # Transaction distribution
system.tol2bus.trans_dist::ReadExReq         16658660                       # Transaction distribution
system.tol2bus.trans_dist::ReadExResp        16658660                       # Transaction distribution
system.tol2bus.trans_dist::ReadCleanReq       1919044                       # Transaction distribution
system.tol2bus.trans_dist::ReadSharedReq       258538                       # Transaction distribution
system.tol2bus.pkt_count_system.cpu.icache.mem_side::system.l2.cpu_side      5755377                       # Packet count per connected master and slave (bytes)
system.tol2bus.pkt_count_system.cpu.dcache.mem_side::system.l2.cpu_side     50747498                       # Packet count per connected master and slave (bytes)
system.tol2bus.pkt_count::total              56502875                       # Packet count per connected master and slave (bytes)
system.tol2bus.pkt_size_system.cpu.icache.mem_side::system.l2.cpu_side    122762656                       # Cumulative packet size per connected master and slave (bytes)
system.tol2bus.pkt_size_system.cpu.dcache.mem_side::system.l2.cpu_side   1078952480                       # Cumulative packet size per connected master and slave (bytes)
system.tol2bus.pkt_size::total             1201715136                       # Cumulative packet size per connected master and slave (bytes)
system.tol2bus.snoops                        16646877                       # Total snoops (count)
system.tol2bus.snoopTraffic                 532012800                       # Total snoop traffic (bytes)
system.tol2bus.snoop_fanout::samples         35483119                       # Request fanout histogram
system.tol2bus.snoop_fanout::mean            0.000295                       # Request fanout histogram
system.tol2bus.snoop_fanout::stdev           0.017159                       # Request fanout histogram
system.tol2bus.snoop_fanout::underflows             0      0.00%      0.00% # Request fanout histogram
system.tol2bus.snoop_fanout::0               35472669     99.97%     99.97% # Request fanout histogram
system.tol2bus.snoop_fanout::1                  10450      0.03%    100.00% # Request fanout histogram
system.tol2bus.snoop_fanout::2                      0      0.00%    100.00% # Request fanout histogram
system.tol2bus.snoop_fanout::3                      0      0.00%    100.00% # Request fanout histogram
system.tol2bus.snoop_fanout::4                      0      0.00%    100.00% # Request fanout histogram
system.tol2bus.snoop_fanout::overflows              0      0.00%    100.00% # Request fanout histogram
system.tol2bus.snoop_fanout::min_value              0                       # Request fanout histogram
system.tol2bus.snoop_fanout::max_value              1                       # Request fanout histogram
system.tol2bus.snoop_fanout::total           35483119                       # Request fanout histogram
system.tol2bus.reqLayer0.occupancy        28191994500                       # Layer occupancy (ticks)
system.tol2bus.reqLayer0.utilization              1.2                       # Layer utilization (%)
system.tol2bus.respLayer0.occupancy        1919044000                       # Layer occupancy (ticks)
system.tol2bus.respLayer0.utilization             0.1                       # Layer utilization (%)
system.tol2bus.respLayer1.occupancy       16917198000                       # Layer occupancy (ticks)
system.tol2bus.respLayer1.utilization             0.7                       # Layer utilization (%)

---------- End Simulation Statistics   ----------
