
---------- Begin Simulation Statistics ----------
sim_seconds                                  1.095240                       # Number of seconds simulated
sim_ticks                                1095239894500                       # Number of ticks simulated
final_tick                               1095239894500                       # Number of ticks from beginning of simulation (restored from checkpoints and never reset)
sim_freq                                 1000000000000                       # Frequency of simulated ticks
host_inst_rate                                 304033                       # Simulator instruction rate (inst/s)
host_op_rate                                   444163                       # Simulator op (including micro ops) rate (op/s)
host_tick_rate                              665979178                       # Simulator tick rate (ticks/s)
host_mem_usage                                 659092                       # Number of bytes of host memory used
host_seconds                                  1644.56                       # Real time elapsed on the host
sim_insts                                   500000001                       # Number of instructions simulated
sim_ops                                     730450447                       # Number of ops (including micro ops) simulated
system.voltage_domain.voltage                       1                       # Voltage in Volts
system.clk_domain.clock                          1000                       # Clock period in ticks
system.mem_ctrls.pwrStateResidencyTicks::UNDEFINED 1095239894500                       # Cumulative time (in ticks) in various power states
system.mem_ctrls.bytes_read::cpu.inst           57984                       # Number of bytes read from this memory
system.mem_ctrls.bytes_read::cpu.data        31639136                       # Number of bytes read from this memory
system.mem_ctrls.bytes_read::total           31697120                       # Number of bytes read from this memory
system.mem_ctrls.bytes_inst_read::cpu.inst        57984                       # Number of instructions bytes read from this memory
system.mem_ctrls.bytes_inst_read::total         57984                       # Number of instructions bytes read from this memory
system.mem_ctrls.bytes_written::writebacks     18002368                       # Number of bytes written to this memory
system.mem_ctrls.bytes_written::total        18002368                       # Number of bytes written to this memory
system.mem_ctrls.num_reads::cpu.inst             1812                       # Number of read requests responded to by this memory
system.mem_ctrls.num_reads::cpu.data           988723                       # Number of read requests responded to by this memory
system.mem_ctrls.num_reads::total              990535                       # Number of read requests responded to by this memory
system.mem_ctrls.num_writes::writebacks        562574                       # Number of write requests responded to by this memory
system.mem_ctrls.num_writes::total             562574                       # Number of write requests responded to by this memory
system.mem_ctrls.bw_read::cpu.inst              52942                       # Total read bandwidth from this memory (bytes/s)
system.mem_ctrls.bw_read::cpu.data           28887859                       # Total read bandwidth from this memory (bytes/s)
system.mem_ctrls.bw_read::total              28940801                       # Total read bandwidth from this memory (bytes/s)
system.mem_ctrls.bw_inst_read::cpu.inst         52942                       # Instruction read bandwidth from this memory (bytes/s)
system.mem_ctrls.bw_inst_read::total            52942                       # Instruction read bandwidth from this memory (bytes/s)
system.mem_ctrls.bw_write::writebacks        16436918                       # Write bandwidth from this memory (bytes/s)
system.mem_ctrls.bw_write::total             16436918                       # Write bandwidth from this memory (bytes/s)
system.mem_ctrls.bw_total::writebacks        16436918                       # Total bandwidth to/from this memory (bytes/s)
system.mem_ctrls.bw_total::cpu.inst             52942                       # Total bandwidth to/from this memory (bytes/s)
system.mem_ctrls.bw_total::cpu.data          28887859                       # Total bandwidth to/from this memory (bytes/s)
system.mem_ctrls.bw_total::total             45377719                       # Total bandwidth to/from this memory (bytes/s)
system.mem_ctrls.readReqs                      990535                       # Number of read requests accepted
system.mem_ctrls.writeReqs                     562574                       # Number of write requests accepted
system.mem_ctrls.readBursts                    990535                       # Number of DRAM read bursts, including those serviced by the write queue
system.mem_ctrls.writeBursts                   562574                       # Number of DRAM write bursts, including those merged in the write queue
system.mem_ctrls.bytesReadDRAM               63363328                       # Total number of bytes read from DRAM
system.mem_ctrls.bytesReadWrQ                   30912                       # Total number of bytes read from write queue
system.mem_ctrls.bytesWritten                31408640                       # Total number of bytes written to DRAM
system.mem_ctrls.bytesReadSys                31697120                       # Total read bytes from the system interface side
system.mem_ctrls.bytesWrittenSys             18002368                       # Total written bytes from the system interface side
system.mem_ctrls.servicedByWrQ                    483                       # Number of DRAM read bursts serviced by the write queue
system.mem_ctrls.mergedWrBursts                 71795                       # Number of DRAM write bursts merged with an existing one
system.mem_ctrls.neitherReadNorWriteReqs            0                       # Number of requests that are neither read nor write
system.mem_ctrls.perBankRdBursts::0             64872                       # Per bank write bursts
system.mem_ctrls.perBankRdBursts::1             62845                       # Per bank write bursts
system.mem_ctrls.perBankRdBursts::2             61501                       # Per bank write bursts
system.mem_ctrls.perBankRdBursts::3             60503                       # Per bank write bursts
system.mem_ctrls.perBankRdBursts::4             59613                       # Per bank write bursts
system.mem_ctrls.perBankRdBursts::5             60106                       # Per bank write bursts
system.mem_ctrls.perBankRdBursts::6             62371                       # Per bank write bursts
system.mem_ctrls.perBankRdBursts::7             61425                       # Per bank write bursts
system.mem_ctrls.perBankRdBursts::8             58837                       # Per bank write bursts
system.mem_ctrls.perBankRdBursts::9             58083                       # Per bank write bursts
system.mem_ctrls.perBankRdBursts::10            61604                       # Per bank write bursts
system.mem_ctrls.perBankRdBursts::11            63036                       # Per bank write bursts
system.mem_ctrls.perBankRdBursts::12            63581                       # Per bank write bursts
system.mem_ctrls.perBankRdBursts::13            63313                       # Per bank write bursts
system.mem_ctrls.perBankRdBursts::14            63935                       # Per bank write bursts
system.mem_ctrls.perBankRdBursts::15            64427                       # Per bank write bursts
system.mem_ctrls.perBankWrBursts::0             32249                       # Per bank write bursts
system.mem_ctrls.perBankWrBursts::1             31052                       # Per bank write bursts
system.mem_ctrls.perBankWrBursts::2             30321                       # Per bank write bursts
system.mem_ctrls.perBankWrBursts::3             29715                       # Per bank write bursts
system.mem_ctrls.perBankWrBursts::4             29088                       # Per bank write bursts
system.mem_ctrls.perBankWrBursts::5             28970                       # Per bank write bursts
system.mem_ctrls.perBankWrBursts::6             30125                       # Per bank write bursts
system.mem_ctrls.perBankWrBursts::7             30249                       # Per bank write bursts
system.mem_ctrls.perBankWrBursts::8             29791                       # Per bank write bursts
system.mem_ctrls.perBankWrBursts::9             29580                       # Per bank write bursts
system.mem_ctrls.perBankWrBursts::10            30713                       # Per bank write bursts
system.mem_ctrls.perBankWrBursts::11            31019                       # Per bank write bursts
system.mem_ctrls.perBankWrBursts::12            31424                       # Per bank write bursts
system.mem_ctrls.perBankWrBursts::13            31937                       # Per bank write bursts
system.mem_ctrls.perBankWrBursts::14            32301                       # Per bank write bursts
system.mem_ctrls.perBankWrBursts::15            32226                       # Per bank write bursts
system.mem_ctrls.numRdRetry                         0                       # Number of times read queue was full causing retry
system.mem_ctrls.numWrRetry                         0                       # Number of times write queue was full causing retry
system.mem_ctrls.totGap                  1095236649500                       # Total gap between requests
system.mem_ctrls.readPktSize::0                     0                       # Read request sizes (log2)
system.mem_ctrls.readPktSize::1                     0                       # Read request sizes (log2)
system.mem_ctrls.readPktSize::2                     0                       # Read request sizes (log2)
system.mem_ctrls.readPktSize::3                     0                       # Read request sizes (log2)
system.mem_ctrls.readPktSize::4                     0                       # Read request sizes (log2)
system.mem_ctrls.readPktSize::5                990535                       # Read request sizes (log2)
system.mem_ctrls.readPktSize::6                     0                       # Read request sizes (log2)
system.mem_ctrls.writePktSize::0                    0                       # Write request sizes (log2)
system.mem_ctrls.writePktSize::1                    0                       # Write request sizes (log2)
system.mem_ctrls.writePktSize::2                    0                       # Write request sizes (log2)
system.mem_ctrls.writePktSize::3                    0                       # Write request sizes (log2)
system.mem_ctrls.writePktSize::4                    0                       # Write request sizes (log2)
system.mem_ctrls.writePktSize::5               562574                       # Write request sizes (log2)
system.mem_ctrls.writePktSize::6                    0                       # Write request sizes (log2)
system.mem_ctrls.rdQLenPdf::0                  973608                       # What read queue length does an incoming req see
system.mem_ctrls.rdQLenPdf::1                    8179                       # What read queue length does an incoming req see
system.mem_ctrls.rdQLenPdf::2                    8250                       # What read queue length does an incoming req see
system.mem_ctrls.rdQLenPdf::3                      15                       # What read queue length does an incoming req see
system.mem_ctrls.rdQLenPdf::4                       0                       # What read queue length does an incoming req see
system.mem_ctrls.rdQLenPdf::5                       0                       # What read queue length does an incoming req see
system.mem_ctrls.rdQLenPdf::6                       0                       # What read queue length does an incoming req see
system.mem_ctrls.rdQLenPdf::7                       0                       # What read queue length does an incoming req see
system.mem_ctrls.rdQLenPdf::8                       0                       # What read queue length does an incoming req see
system.mem_ctrls.rdQLenPdf::9                       0                       # What read queue length does an incoming req see
system.mem_ctrls.rdQLenPdf::10                      0                       # What read queue length does an incoming req see
system.mem_ctrls.rdQLenPdf::11                      0                       # What read queue length does an incoming req see
system.mem_ctrls.rdQLenPdf::12                      0                       # What read queue length does an incoming req see
system.mem_ctrls.rdQLenPdf::13                      0                       # What read queue length does an incoming req see
system.mem_ctrls.rdQLenPdf::14                      0                       # What read queue length does an incoming req see
system.mem_ctrls.rdQLenPdf::15                      0                       # What read queue length does an incoming req see
system.mem_ctrls.rdQLenPdf::16                      0                       # What read queue length does an incoming req see
system.mem_ctrls.rdQLenPdf::17                      0                       # What read queue length does an incoming req see
system.mem_ctrls.rdQLenPdf::18                      0                       # What read queue length does an incoming req see
system.mem_ctrls.rdQLenPdf::19                      0                       # What read queue length does an incoming req see
system.mem_ctrls.rdQLenPdf::20                      0                       # What read queue length does an incoming req see
system.mem_ctrls.rdQLenPdf::21                      0                       # What read queue length does an incoming req see
system.mem_ctrls.rdQLenPdf::22                      0                       # What read queue length does an incoming req see
system.mem_ctrls.rdQLenPdf::23                      0                       # What read queue length does an incoming req see
system.mem_ctrls.rdQLenPdf::24                      0                       # What read queue length does an incoming req see
system.mem_ctrls.rdQLenPdf::25                      0                       # What read queue length does an incoming req see
system.mem_ctrls.rdQLenPdf::26                      0                       # What read queue length does an incoming req see
system.mem_ctrls.rdQLenPdf::27                      0                       # What read queue length does an incoming req see
system.mem_ctrls.rdQLenPdf::28                      0                       # What read queue length does an incoming req see
system.mem_ctrls.rdQLenPdf::29                      0                       # What read queue length does an incoming req see
system.mem_ctrls.rdQLenPdf::30                      0                       # What read queue length does an incoming req see
system.mem_ctrls.rdQLenPdf::31                      0                       # What read queue length does an incoming req see
system.mem_ctrls.wrQLenPdf::0                       1                       # What write queue length does an incoming req see
system.mem_ctrls.wrQLenPdf::1                       1                       # What write queue length does an incoming req see
system.mem_ctrls.wrQLenPdf::2                       1                       # What write queue length does an incoming req see
system.mem_ctrls.wrQLenPdf::3                       1                       # What write queue length does an incoming req see
system.mem_ctrls.wrQLenPdf::4                       1                       # What write queue length does an incoming req see
system.mem_ctrls.wrQLenPdf::5                       1                       # What write queue length does an incoming req see
system.mem_ctrls.wrQLenPdf::6                       1                       # What write queue length does an incoming req see
system.mem_ctrls.wrQLenPdf::7                       1                       # What write queue length does an incoming req see
system.mem_ctrls.wrQLenPdf::8                       1                       # What write queue length does an incoming req see
system.mem_ctrls.wrQLenPdf::9                       1                       # What write queue length does an incoming req see
system.mem_ctrls.wrQLenPdf::10                      1                       # What write queue length does an incoming req see
system.mem_ctrls.wrQLenPdf::11                      1                       # What write queue length does an incoming req see
system.mem_ctrls.wrQLenPdf::12                      1                       # What write queue length does an incoming req see
system.mem_ctrls.wrQLenPdf::13                      1                       # What write queue length does an incoming req see
system.mem_ctrls.wrQLenPdf::14                      1                       # What write queue length does an incoming req see
system.mem_ctrls.wrQLenPdf::15                  16657                       # What write queue length does an incoming req see
system.mem_ctrls.wrQLenPdf::16                  17873                       # What write queue length does an incoming req see
system.mem_ctrls.wrQLenPdf::17                  28494                       # What write queue length does an incoming req see
system.mem_ctrls.wrQLenPdf::18                  28510                       # What write queue length does an incoming req see
system.mem_ctrls.wrQLenPdf::19                  28511                       # What write queue length does an incoming req see
system.mem_ctrls.wrQLenPdf::20                  28507                       # What write queue length does an incoming req see
system.mem_ctrls.wrQLenPdf::21                  28511                       # What write queue length does an incoming req see
system.mem_ctrls.wrQLenPdf::22                  28506                       # What write queue length does an incoming req see
system.mem_ctrls.wrQLenPdf::23                  28507                       # What write queue length does an incoming req see
system.mem_ctrls.wrQLenPdf::24                  28508                       # What write queue length does an incoming req see
system.mem_ctrls.wrQLenPdf::25                  28513                       # What write queue length does an incoming req see
system.mem_ctrls.wrQLenPdf::26                  28510                       # What write queue length does an incoming req see
system.mem_ctrls.wrQLenPdf::27                  28509                       # What write queue length does an incoming req see
system.mem_ctrls.wrQLenPdf::28                  28525                       # What write queue length does an incoming req see
system.mem_ctrls.wrQLenPdf::29                  28577                       # What write queue length does an incoming req see
system.mem_ctrls.wrQLenPdf::30                  28530                       # What write queue length does an incoming req see
system.mem_ctrls.wrQLenPdf::31                  28510                       # What write queue length does an incoming req see
system.mem_ctrls.wrQLenPdf::32                  28506                       # What write queue length does an incoming req see
system.mem_ctrls.wrQLenPdf::33                      0                       # What write queue length does an incoming req see
system.mem_ctrls.wrQLenPdf::34                      0                       # What write queue length does an incoming req see
system.mem_ctrls.wrQLenPdf::35                      0                       # What write queue length does an incoming req see
system.mem_ctrls.wrQLenPdf::36                      0                       # What write queue length does an incoming req see
system.mem_ctrls.wrQLenPdf::37                      0                       # What write queue length does an incoming req see
system.mem_ctrls.wrQLenPdf::38                      0                       # What write queue length does an incoming req see
system.mem_ctrls.wrQLenPdf::39                      0                       # What write queue length does an incoming req see
system.mem_ctrls.wrQLenPdf::40                      0                       # What write queue length does an incoming req see
system.mem_ctrls.wrQLenPdf::41                      0                       # What write queue length does an incoming req see
system.mem_ctrls.wrQLenPdf::42                      0                       # What write queue length does an incoming req see
system.mem_ctrls.wrQLenPdf::43                      0                       # What write queue length does an incoming req see
system.mem_ctrls.wrQLenPdf::44                      0                       # What write queue length does an incoming req see
system.mem_ctrls.wrQLenPdf::45                      0                       # What write queue length does an incoming req see
system.mem_ctrls.wrQLenPdf::46                      0                       # What write queue length does an incoming req see
system.mem_ctrls.wrQLenPdf::47                      0                       # What write queue length does an incoming req see
system.mem_ctrls.wrQLenPdf::48                      0                       # What write queue length does an incoming req see
system.mem_ctrls.wrQLenPdf::49                      0                       # What write queue length does an incoming req see
system.mem_ctrls.wrQLenPdf::50                      0                       # What write queue length does an incoming req see
system.mem_ctrls.wrQLenPdf::51                      0                       # What write queue length does an incoming req see
system.mem_ctrls.wrQLenPdf::52                      0                       # What write queue length does an incoming req see
system.mem_ctrls.wrQLenPdf::53                      0                       # What write queue length does an incoming req see
system.mem_ctrls.wrQLenPdf::54                      0                       # What write queue length does an incoming req see
system.mem_ctrls.wrQLenPdf::55                      0                       # What write queue length does an incoming req see
system.mem_ctrls.wrQLenPdf::56                      0                       # What write queue length does an incoming req see
system.mem_ctrls.wrQLenPdf::57                      0                       # What write queue length does an incoming req see
system.mem_ctrls.wrQLenPdf::58                      0                       # What write queue length does an incoming req see
system.mem_ctrls.wrQLenPdf::59                      0                       # What write queue length does an incoming req see
system.mem_ctrls.wrQLenPdf::60                      0                       # What write queue length does an incoming req see
system.mem_ctrls.wrQLenPdf::61                      0                       # What write queue length does an incoming req see
system.mem_ctrls.wrQLenPdf::62                      0                       # What write queue length does an incoming req see
system.mem_ctrls.wrQLenPdf::63                      0                       # What write queue length does an incoming req see
system.mem_ctrls.bytesPerActivate::samples       736520                       # Bytes accessed per row activation
system.mem_ctrls.bytesPerActivate::mean    128.675262                       # Bytes accessed per row activation
system.mem_ctrls.bytesPerActivate::gmean    92.203106                       # Bytes accessed per row activation
system.mem_ctrls.bytesPerActivate::stdev   165.507676                       # Bytes accessed per row activation
system.mem_ctrls.bytesPerActivate::0-127       517475     70.26%     70.26% # Bytes accessed per row activation
system.mem_ctrls.bytesPerActivate::128-255       138881     18.86%     89.12% # Bytes accessed per row activation
system.mem_ctrls.bytesPerActivate::256-383        29862      4.05%     93.17% # Bytes accessed per row activation
system.mem_ctrls.bytesPerActivate::384-511        12182      1.65%     94.82% # Bytes accessed per row activation
system.mem_ctrls.bytesPerActivate::512-639        17017      2.31%     97.13% # Bytes accessed per row activation
system.mem_ctrls.bytesPerActivate::640-767         4985      0.68%     97.81% # Bytes accessed per row activation
system.mem_ctrls.bytesPerActivate::768-895         1863      0.25%     98.06% # Bytes accessed per row activation
system.mem_ctrls.bytesPerActivate::896-1023         1436      0.19%     98.26% # Bytes accessed per row activation
system.mem_ctrls.bytesPerActivate::1024-1151        12819      1.74%    100.00% # Bytes accessed per row activation
system.mem_ctrls.bytesPerActivate::total       736520                       # Bytes accessed per row activation
system.mem_ctrls.rdPerTurnAround::samples        28506                       # Reads before turning the bus around for writes
system.mem_ctrls.rdPerTurnAround::mean      34.249632                       # Reads before turning the bus around for writes
system.mem_ctrls.rdPerTurnAround::gmean     26.578365                       # Reads before turning the bus around for writes
system.mem_ctrls.rdPerTurnAround::stdev    279.014540                       # Reads before turning the bus around for writes
system.mem_ctrls.rdPerTurnAround::0-2047        28496     99.96%     99.96% # Reads before turning the bus around for writes
system.mem_ctrls.rdPerTurnAround::2048-4095            3      0.01%     99.98% # Reads before turning the bus around for writes
system.mem_ctrls.rdPerTurnAround::4096-6143            3      0.01%     99.99% # Reads before turning the bus around for writes
system.mem_ctrls.rdPerTurnAround::6144-8191            2      0.01%     99.99% # Reads before turning the bus around for writes
system.mem_ctrls.rdPerTurnAround::10240-12287            1      0.00%    100.00% # Reads before turning the bus around for writes
system.mem_ctrls.rdPerTurnAround::40960-43007            1      0.00%    100.00% # Reads before turning the bus around for writes
system.mem_ctrls.rdPerTurnAround::total         28506                       # Reads before turning the bus around for writes
system.mem_ctrls.wrPerTurnAround::samples        28506                       # Writes before turning the bus around for reads
system.mem_ctrls.wrPerTurnAround::mean      17.216025                       # Writes before turning the bus around for reads
system.mem_ctrls.wrPerTurnAround::gmean     17.188705                       # Writes before turning the bus around for reads
system.mem_ctrls.wrPerTurnAround::stdev      0.961999                       # Writes before turning the bus around for reads
system.mem_ctrls.wrPerTurnAround::16            10639     37.32%     37.32% # Writes before turning the bus around for reads
system.mem_ctrls.wrPerTurnAround::17             1206      4.23%     41.55% # Writes before turning the bus around for reads
system.mem_ctrls.wrPerTurnAround::18            16526     57.97%     99.53% # Writes before turning the bus around for reads
system.mem_ctrls.wrPerTurnAround::19              134      0.47%    100.00% # Writes before turning the bus around for reads
system.mem_ctrls.wrPerTurnAround::20                1      0.00%    100.00% # Writes before turning the bus around for reads
system.mem_ctrls.wrPerTurnAround::total         28506                       # Writes before turning the bus around for reads
system.mem_ctrls.totQLat                  26355176500                       # Total ticks spent queuing
system.mem_ctrls.totMemAccLat             44918651500                       # Total ticks spent from burst creation until serviced by the DRAM
system.mem_ctrls.totBusLat                 4950260000                       # Total ticks spent in databus transfers
system.mem_ctrls.avgQLat                     26619.99                       # Average queueing delay per DRAM burst
system.mem_ctrls.avgBusLat                    5000.00                       # Average bus latency per DRAM burst
system.mem_ctrls.avgMemAccLat                45369.99                       # Average memory access latency per DRAM burst
system.mem_ctrls.avgRdBW                        57.85                       # Average DRAM read bandwidth in MiByte/s
system.mem_ctrls.avgWrBW                        28.68                       # Average achieved write bandwidth in MiByte/s
system.mem_ctrls.avgRdBWSys                     28.94                       # Average system read bandwidth in MiByte/s
system.mem_ctrls.avgWrBWSys                     16.44                       # Average system write bandwidth in MiByte/s
system.mem_ctrls.peakBW                      12800.00                       # Theoretical peak bandwidth in MiByte/s
system.mem_ctrls.busUtil                         0.68                       # Data bus utilization in percentage
system.mem_ctrls.busUtilRead                     0.45                       # Data bus utilization in percentage for reads
system.mem_ctrls.busUtilWrite                    0.22                       # Data bus utilization in percentage for writes
system.mem_ctrls.avgRdQLen                       1.00                       # Average read queue length when enqueuing
system.mem_ctrls.avgWrQLen                      23.02                       # Average write queue length when enqueuing
system.mem_ctrls.readRowHits                   532076                       # Number of row buffer hits during reads
system.mem_ctrls.writeRowHits                  212215                       # Number of row buffer hits during writes
system.mem_ctrls.readRowHitRate                 53.74                       # Row buffer hit rate for reads
system.mem_ctrls.writeRowHitRate                43.24                       # Row buffer hit rate for writes
system.mem_ctrls.avgGap                     705189.82                       # Average gap between requests
system.mem_ctrls.pageHitRate                    50.26                       # Row buffer hit rate, read and write combined
system.mem_ctrls_0.actEnergy               2606699760                       # Energy for activate commands per rank (pJ)
system.mem_ctrls_0.preEnergy               1385489985                       # Energy for precharge commands per rank (pJ)
system.mem_ctrls_0.readEnergy              3521705040                       # Energy for read commands per rank (pJ)
system.mem_ctrls_0.writeEnergy             1262034180                       # Energy for write commands per rank (pJ)
system.mem_ctrls_0.refreshEnergy         42653557440.000008                       # Energy for refresh commands per rank (pJ)
system.mem_ctrls_0.actBackEnergy          24828114720                       # Energy for active background per rank (pJ)
system.mem_ctrls_0.preBackEnergy           1610563200                       # Energy for precharge background per rank (pJ)
system.mem_ctrls_0.actPowerDownEnergy    144717457320                       # Energy for active power-down per rank (pJ)
system.mem_ctrls_0.prePowerDownEnergy     43367941920                       # Energy for precharge power-down per rank (pJ)
system.mem_ctrls_0.selfRefreshEnergy     149428642320                       # Energy for self refresh per rank (pJ)
system.mem_ctrls_0.totalEnergy           415391340705                       # Total energy per rank (pJ)
system.mem_ctrls_0.averagePower            379.269731                       # Core power per rank (mW)
system.mem_ctrls_0.totalIdleTime         1036574493250                       # Total Idle time Per DRAM Rank
system.mem_ctrls_0.memoryStateTime::IDLE   2295293750                       # Time in different power states
system.mem_ctrls_0.memoryStateTime::REF   18086394000                       # Time in different power states
system.mem_ctrls_0.memoryStateTime::SREF 606277597500                       # Time in different power states
system.mem_ctrls_0.memoryStateTime::PRE_PDN 112936581250                       # Time in different power states
system.mem_ctrls_0.memoryStateTime::ACT   38281042500                       # Time in different power states
system.mem_ctrls_0.memoryStateTime::ACT_PDN 317362985500                       # Time in different power states
system.mem_ctrls_1.actEnergy               2652060180                       # Energy for activate commands per rank (pJ)
system.mem_ctrls_1.preEnergy               1409603415                       # Energy for precharge commands per rank (pJ)
system.mem_ctrls_1.readEnergy              3547266240                       # Energy for read commands per rank (pJ)
system.mem_ctrls_1.writeEnergy             1299733020                       # Energy for write commands per rank (pJ)
system.mem_ctrls_1.refreshEnergy         42545995440.000008                       # Energy for refresh commands per rank (pJ)
system.mem_ctrls_1.actBackEnergy          24806288850                       # Energy for active background per rank (pJ)
system.mem_ctrls_1.preBackEnergy           1622049600                       # Energy for precharge background per rank (pJ)
system.mem_ctrls_1.actPowerDownEnergy    143496196980                       # Energy for active power-down per rank (pJ)
system.mem_ctrls_1.prePowerDownEnergy     43554552960                       # Energy for precharge power-down per rank (pJ)
system.mem_ctrls_1.selfRefreshEnergy     150023731560                       # Energy for self refresh per rank (pJ)
system.mem_ctrls_1.totalEnergy           414968377905                       # Total energy per rank (pJ)
system.mem_ctrls_1.averagePower            378.883548                       # Core power per rank (mW)
system.mem_ctrls_1.totalIdleTime         1036553007500                       # Total Idle time Per DRAM Rank
system.mem_ctrls_1.memoryStateTime::IDLE   2324211250                       # Time in different power states
system.mem_ctrls_1.memoryStateTime::REF   18041674000                       # Time in different power states
system.mem_ctrls_1.memoryStateTime::SREF 608483917750                       # Time in different power states
system.mem_ctrls_1.memoryStateTime::PRE_PDN 113423937500                       # Time in different power states
system.mem_ctrls_1.memoryStateTime::ACT   38282786750                       # Time in different power states
system.mem_ctrls_1.memoryStateTime::ACT_PDN 314683367250                       # Time in different power states
system.pwrStateResidencyTicks::UNDEFINED 1095239894500                       # Cumulative time (in ticks) in various power states
system.cpu_voltage_domain.voltage                   1                       # Voltage in Volts
system.cpu_clk_domain.clock                       500                       # Clock period in ticks
system.cpu.dtb.walker.pwrStateResidencyTicks::UNDEFINED 1095239894500                       # Cumulative time (in ticks) in various power states
system.cpu.apic_clk_domain.clock                 8000                       # Clock period in ticks
system.cpu.interrupts.pwrStateResidencyTicks::UNDEFINED 1095239894500                       # Cumulative time (in ticks) in various power states
system.cpu.itb.walker.pwrStateResidencyTicks::UNDEFINED 1095239894500                       # Cumulative time (in ticks) in various power states
system.cpu.workload.num_syscalls                   86                       # Number of system calls
system.cpu.pwrStateResidencyTicks::ON    1095239894500                       # Cumulative time (in ticks) in various power states
system.cpu.numCycles                       2190479789                       # number of cpu cycles simulated
system.cpu.numWorkItemsStarted                      0                       # number of work items this cpu started
system.cpu.numWorkItemsCompleted                    0                       # number of work items this cpu completed
system.cpu.committedInsts                   500000001                       # Number of instructions committed
system.cpu.committedOps                     730450447                       # Number of ops (including micro ops) committed
system.cpu.num_int_alu_accesses             729688906                       # Number of integer alu accesses
system.cpu.num_fp_alu_accesses                    663                       # Number of float alu accesses
system.cpu.num_func_calls                     1453961                       # number of times a function call or return occured
system.cpu.num_conditional_control_insts     31770496                       # number of instructions that are conditional controls
system.cpu.num_int_insts                    729688906                       # number of integer instructions
system.cpu.num_fp_insts                           663                       # number of float instructions
system.cpu.num_int_register_reads          1698743411                       # number of times the integer registers were read
system.cpu.num_int_register_writes          621892950                       # number of times the integer registers were written
system.cpu.num_fp_register_reads                 1009                       # number of times the floating registers were read
system.cpu.num_fp_register_writes                 429                       # number of times the floating registers were written
system.cpu.num_cc_register_reads            180840559                       # number of times the CC registers were read
system.cpu.num_cc_register_writes           276245121                       # number of times the CC registers were written
system.cpu.num_mem_refs                     295985461                       # number of memory refs
system.cpu.num_load_insts                   225946751                       # Number of load instructions
system.cpu.num_store_insts                   70038710                       # Number of store instructions
system.cpu.num_idle_cycles                          0                       # Number of idle cycles
system.cpu.num_busy_cycles                 2190479789                       # Number of busy cycles
system.cpu.not_idle_fraction                        1                       # Percentage of non-idle cycles
system.cpu.idle_fraction                            0                       # Percentage of idle cycles
system.cpu.Branches                          37843296                       # Number of branches fetched
system.cpu.op_class::No_OpClass                 94740      0.01%      0.01% # Class of executed instruction
system.cpu.op_class::IntAlu                 434349067     59.46%     59.48% # Class of executed instruction
system.cpu.op_class::IntMult                    20662      0.00%     59.48% # Class of executed instruction
system.cpu.op_class::IntDiv                       119      0.00%     59.48% # Class of executed instruction
system.cpu.op_class::FloatAdd                     398      0.00%     59.48% # Class of executed instruction
system.cpu.op_class::FloatCmp                       0      0.00%     59.48% # Class of executed instruction
system.cpu.op_class::FloatCvt                       0      0.00%     59.48% # Class of executed instruction
system.cpu.op_class::FloatMult                      0      0.00%     59.48% # Class of executed instruction
system.cpu.op_class::FloatDiv                       0      0.00%     59.48% # Class of executed instruction
system.cpu.op_class::FloatSqrt                      0      0.00%     59.48% # Class of executed instruction
system.cpu.op_class::SimdAdd                        0      0.00%     59.48% # Class of executed instruction
system.cpu.op_class::SimdAddAcc                     0      0.00%     59.48% # Class of executed instruction
system.cpu.op_class::SimdAlu                        0      0.00%     59.48% # Class of executed instruction
system.cpu.op_class::SimdCmp                        0      0.00%     59.48% # Class of executed instruction
system.cpu.op_class::SimdCvt                        0      0.00%     59.48% # Class of executed instruction
system.cpu.op_class::SimdMisc                       0      0.00%     59.48% # Class of executed instruction
system.cpu.op_class::SimdMult                       0      0.00%     59.48% # Class of executed instruction
system.cpu.op_class::SimdMultAcc                    0      0.00%     59.48% # Class of executed instruction
system.cpu.op_class::SimdShift                      0      0.00%     59.48% # Class of executed instruction
system.cpu.op_class::SimdShiftAcc                   0      0.00%     59.48% # Class of executed instruction
system.cpu.op_class::SimdSqrt                       0      0.00%     59.48% # Class of executed instruction
system.cpu.op_class::SimdFloatAdd                   0      0.00%     59.48% # Class of executed instruction
system.cpu.op_class::SimdFloatAlu                   0      0.00%     59.48% # Class of executed instruction
system.cpu.op_class::SimdFloatCmp                   0      0.00%     59.48% # Class of executed instruction
system.cpu.op_class::SimdFloatCvt                   0      0.00%     59.48% # Class of executed instruction
system.cpu.op_class::SimdFloatDiv                   0      0.00%     59.48% # Class of executed instruction
system.cpu.op_class::SimdFloatMisc                  0      0.00%     59.48% # Class of executed instruction
system.cpu.op_class::SimdFloatMult                  0      0.00%     59.48% # Class of executed instruction
system.cpu.op_class::SimdFloatMultAcc               0      0.00%     59.48% # Class of executed instruction
system.cpu.op_class::SimdFloatSqrt                  0      0.00%     59.48% # Class of executed instruction
system.cpu.op_class::MemRead                225946751     30.93%     90.41% # Class of executed instruction
system.cpu.op_class::MemWrite                70038710      9.59%    100.00% # Class of executed instruction
system.cpu.op_class::IprAccess                      0      0.00%    100.00% # Class of executed instruction
system.cpu.op_class::InstPrefetch                   0      0.00%    100.00% # Class of executed instruction
system.cpu.op_class::total                  730450447                       # Class of executed instruction
system.cpu.dcache.tags.pwrStateResidencyTicks::UNDEFINED 1095239894500                       # Cumulative time (in ticks) in various power states
system.cpu.dcache.tags.replacements           2350865                       # number of replacements
system.cpu.dcache.tags.tagsinuse          4083.086793                       # Cycle average of tags in use
system.cpu.dcache.tags.total_refs           293630513                       # Total number of references to valid blocks.
system.cpu.dcache.tags.sampled_refs           2354961                       # Sample count of references to valid blocks.
system.cpu.dcache.tags.avg_refs            124.685935                       # Average number of references to valid blocks.
system.cpu.dcache.tags.warmup_cycle        3963764500                       # Cycle when the warmup percentage was hit.
system.cpu.dcache.tags.occ_blocks::cpu.data  4083.086793                       # Average occupied blocks per requestor
system.cpu.dcache.tags.occ_percent::cpu.data     0.996847                       # Average percentage of cache occupancy
system.cpu.dcache.tags.occ_percent::total     0.996847                       # Average percentage of cache occupancy
system.cpu.dcache.tags.occ_task_id_blocks::1024         4096                       # Occupied blocks per task id
system.cpu.dcache.tags.age_task_id_blocks_1024::0            1                       # Occupied blocks per task id
system.cpu.dcache.tags.age_task_id_blocks_1024::1            3                       # Occupied blocks per task id
system.cpu.dcache.tags.age_task_id_blocks_1024::2           32                       # Occupied blocks per task id
system.cpu.dcache.tags.age_task_id_blocks_1024::3         3116                       # Occupied blocks per task id
system.cpu.dcache.tags.age_task_id_blocks_1024::4          944                       # Occupied blocks per task id
system.cpu.dcache.tags.occ_task_id_percent::1024            1                       # Percentage of cache occupancy per task id
system.cpu.dcache.tags.tag_accesses        1186296857                       # Number of tag accesses
system.cpu.dcache.tags.data_accesses       1186296857                       # Number of data accesses
system.cpu.dcache.pwrStateResidencyTicks::UNDEFINED 1095239894500                       # Cumulative time (in ticks) in various power states
system.cpu.dcache.ReadReq_hits::cpu.data    224294203                       # number of ReadReq hits
system.cpu.dcache.ReadReq_hits::total       224294203                       # number of ReadReq hits
system.cpu.dcache.WriteReq_hits::cpu.data     69336310                       # number of WriteReq hits
system.cpu.dcache.WriteReq_hits::total       69336310                       # number of WriteReq hits
system.cpu.dcache.demand_hits::cpu.data     293630513                       # number of demand (read+write) hits
system.cpu.dcache.demand_hits::total        293630513                       # number of demand (read+write) hits
system.cpu.dcache.overall_hits::cpu.data    293630513                       # number of overall hits
system.cpu.dcache.overall_hits::total       293630513                       # number of overall hits
system.cpu.dcache.ReadReq_misses::cpu.data      1636175                       # number of ReadReq misses
system.cpu.dcache.ReadReq_misses::total       1636175                       # number of ReadReq misses
system.cpu.dcache.WriteReq_misses::cpu.data       702402                       # number of WriteReq misses
system.cpu.dcache.WriteReq_misses::total       702402                       # number of WriteReq misses
system.cpu.dcache.SoftPFReq_misses::cpu.data        16384                       # number of SoftPFReq misses
system.cpu.dcache.SoftPFReq_misses::total        16384                       # number of SoftPFReq misses
system.cpu.dcache.demand_misses::cpu.data      2338577                       # number of demand (read+write) misses
system.cpu.dcache.demand_misses::total        2338577                       # number of demand (read+write) misses
system.cpu.dcache.overall_misses::cpu.data      2354961                       # number of overall misses
system.cpu.dcache.overall_misses::total       2354961                       # number of overall misses
system.cpu.dcache.ReadReq_miss_latency::cpu.data  65332704500                       # number of ReadReq miss cycles
system.cpu.dcache.ReadReq_miss_latency::total  65332704500                       # number of ReadReq miss cycles
system.cpu.dcache.WriteReq_miss_latency::cpu.data  48696598000                       # number of WriteReq miss cycles
system.cpu.dcache.WriteReq_miss_latency::total  48696598000                       # number of WriteReq miss cycles
system.cpu.dcache.demand_miss_latency::cpu.data 114029302500                       # number of demand (read+write) miss cycles
system.cpu.dcache.demand_miss_latency::total 114029302500                       # number of demand (read+write) miss cycles
system.cpu.dcache.overall_miss_latency::cpu.data 114029302500                       # number of overall miss cycles
system.cpu.dcache.overall_miss_latency::total 114029302500                       # number of overall miss cycles
system.cpu.dcache.ReadReq_accesses::cpu.data    225930378                       # number of ReadReq accesses(hits+misses)
system.cpu.dcache.ReadReq_accesses::total    225930378                       # number of ReadReq accesses(hits+misses)
system.cpu.dcache.WriteReq_accesses::cpu.data     70038712                       # number of WriteReq accesses(hits+misses)
system.cpu.dcache.WriteReq_accesses::total     70038712                       # number of WriteReq accesses(hits+misses)
system.cpu.dcache.SoftPFReq_accesses::cpu.data        16384                       # number of SoftPFReq accesses(hits+misses)
system.cpu.dcache.SoftPFReq_accesses::total        16384                       # number of SoftPFReq accesses(hits+misses)
system.cpu.dcache.demand_accesses::cpu.data    295969090                       # number of demand (read+write) accesses
system.cpu.dcache.demand_accesses::total    295969090                       # number of demand (read+write) accesses
system.cpu.dcache.overall_accesses::cpu.data    295985474                       # number of overall (read+write) accesses
system.cpu.dcache.overall_accesses::total    295985474                       # number of overall (read+write) accesses
system.cpu.dcache.ReadReq_miss_rate::cpu.data     0.007242                       # miss rate for ReadReq accesses
system.cpu.dcache.ReadReq_miss_rate::total     0.007242                       # miss rate for ReadReq accesses
system.cpu.dcache.WriteReq_miss_rate::cpu.data     0.010029                       # miss rate for WriteReq accesses
system.cpu.dcache.WriteReq_miss_rate::total     0.010029                       # miss rate for WriteReq accesses
system.cpu.dcache.SoftPFReq_miss_rate::cpu.data            1                       # miss rate for SoftPFReq accesses
system.cpu.dcache.SoftPFReq_miss_rate::total            1                       # miss rate for SoftPFReq accesses
system.cpu.dcache.demand_miss_rate::cpu.data     0.007901                       # miss rate for demand accesses
system.cpu.dcache.demand_miss_rate::total     0.007901                       # miss rate for demand accesses
system.cpu.dcache.overall_miss_rate::cpu.data     0.007956                       # miss rate for overall accesses
system.cpu.dcache.overall_miss_rate::total     0.007956                       # miss rate for overall accesses
system.cpu.dcache.ReadReq_avg_miss_latency::cpu.data 39930.144697                       # average ReadReq miss latency
system.cpu.dcache.ReadReq_avg_miss_latency::total 39930.144697                       # average ReadReq miss latency
system.cpu.dcache.WriteReq_avg_miss_latency::cpu.data 69328.672185                       # average WriteReq miss latency
system.cpu.dcache.WriteReq_avg_miss_latency::total 69328.672185                       # average WriteReq miss latency
system.cpu.dcache.demand_avg_miss_latency::cpu.data 48760.123143                       # average overall miss latency
system.cpu.dcache.demand_avg_miss_latency::total 48760.123143                       # average overall miss latency
system.cpu.dcache.overall_avg_miss_latency::cpu.data 48420.887862                       # average overall miss latency
system.cpu.dcache.overall_avg_miss_latency::total 48420.887862                       # average overall miss latency
system.cpu.dcache.blocked_cycles::no_mshrs         3072                       # number of cycles access was blocked
system.cpu.dcache.blocked_cycles::no_targets            0                       # number of cycles access was blocked
system.cpu.dcache.blocked::no_mshrs                15                       # number of cycles access was blocked
system.cpu.dcache.blocked::no_targets               0                       # number of cycles access was blocked
system.cpu.dcache.avg_blocked_cycles::no_mshrs   204.800000                       # average number of cycles each access was blocked
system.cpu.dcache.avg_blocked_cycles::no_targets          nan                       # average number of cycles each access was blocked
system.cpu.dcache.writebacks::writebacks      1081464                       # number of writebacks
system.cpu.dcache.writebacks::total           1081464                       # number of writebacks
system.cpu.dcache.ReadReq_mshr_misses::cpu.data      1636175                       # number of ReadReq MSHR misses
system.cpu.dcache.ReadReq_mshr_misses::total      1636175                       # number of ReadReq MSHR misses
system.cpu.dcache.WriteReq_mshr_misses::cpu.data       702402                       # number of WriteReq MSHR misses
system.cpu.dcache.WriteReq_mshr_misses::total       702402                       # number of WriteReq MSHR misses
system.cpu.dcache.SoftPFReq_mshr_misses::cpu.data        16384                       # number of SoftPFReq MSHR misses
system.cpu.dcache.SoftPFReq_mshr_misses::total        16384                       # number of SoftPFReq MSHR misses
system.cpu.dcache.demand_mshr_misses::cpu.data      2338577                       # number of demand (read+write) MSHR misses
system.cpu.dcache.demand_mshr_misses::total      2338577                       # number of demand (read+write) MSHR misses
system.cpu.dcache.overall_mshr_misses::cpu.data      2354961                       # number of overall MSHR misses
system.cpu.dcache.overall_mshr_misses::total      2354961                       # number of overall MSHR misses
system.cpu.dcache.ReadReq_mshr_miss_latency::cpu.data  63696529500                       # number of ReadReq MSHR miss cycles
system.cpu.dcache.ReadReq_mshr_miss_latency::total  63696529500                       # number of ReadReq MSHR miss cycles
system.cpu.dcache.WriteReq_mshr_miss_latency::cpu.data  47994196000                       # number of WriteReq MSHR miss cycles
system.cpu.dcache.WriteReq_mshr_miss_latency::total  47994196000                       # number of WriteReq MSHR miss cycles
system.cpu.dcache.SoftPFReq_mshr_miss_latency::cpu.data   1355358000                       # number of SoftPFReq MSHR miss cycles
system.cpu.dcache.SoftPFReq_mshr_miss_latency::total   1355358000                       # number of SoftPFReq MSHR miss cycles
system.cpu.dcache.demand_mshr_miss_latency::cpu.data 111690725500                       # number of demand (read+write) MSHR miss cycles
system.cpu.dcache.demand_mshr_miss_latency::total 111690725500                       # number of demand (read+write) MSHR miss cycles
system.cpu.dcache.overall_mshr_miss_latency::cpu.data 113046083500                       # number of overall MSHR miss cycles
system.cpu.dcache.overall_mshr_miss_latency::total 113046083500                       # number of overall MSHR miss cycles
system.cpu.dcache.ReadReq_mshr_miss_rate::cpu.data     0.007242                       # mshr miss rate for ReadReq accesses
system.cpu.dcache.ReadReq_mshr_miss_rate::total     0.007242                       # mshr miss rate for ReadReq accesses
system.cpu.dcache.WriteReq_mshr_miss_rate::cpu.data     0.010029                       # mshr miss rate for WriteReq accesses
system.cpu.dcache.WriteReq_mshr_miss_rate::total     0.010029                       # mshr miss rate for WriteReq accesses
system.cpu.dcache.SoftPFReq_mshr_miss_rate::cpu.data            1                       # mshr miss rate for SoftPFReq accesses
system.cpu.dcache.SoftPFReq_mshr_miss_rate::total            1                       # mshr miss rate for SoftPFReq accesses
system.cpu.dcache.demand_mshr_miss_rate::cpu.data     0.007901                       # mshr miss rate for demand accesses
system.cpu.dcache.demand_mshr_miss_rate::total     0.007901                       # mshr miss rate for demand accesses
system.cpu.dcache.overall_mshr_miss_rate::cpu.data     0.007956                       # mshr miss rate for overall accesses
system.cpu.dcache.overall_mshr_miss_rate::total     0.007956                       # mshr miss rate for overall accesses
system.cpu.dcache.ReadReq_avg_mshr_miss_latency::cpu.data 38930.144697                       # average ReadReq mshr miss latency
system.cpu.dcache.ReadReq_avg_mshr_miss_latency::total 38930.144697                       # average ReadReq mshr miss latency
system.cpu.dcache.WriteReq_avg_mshr_miss_latency::cpu.data 68328.672185                       # average WriteReq mshr miss latency
system.cpu.dcache.WriteReq_avg_mshr_miss_latency::total 68328.672185                       # average WriteReq mshr miss latency
system.cpu.dcache.SoftPFReq_avg_mshr_miss_latency::cpu.data 82724.487305                       # average SoftPFReq mshr miss latency
system.cpu.dcache.SoftPFReq_avg_mshr_miss_latency::total 82724.487305                       # average SoftPFReq mshr miss latency
system.cpu.dcache.demand_avg_mshr_miss_latency::cpu.data 47760.123143                       # average overall mshr miss latency
system.cpu.dcache.demand_avg_mshr_miss_latency::total 47760.123143                       # average overall mshr miss latency
system.cpu.dcache.overall_avg_mshr_miss_latency::cpu.data 48003.378188                       # average overall mshr miss latency
system.cpu.dcache.overall_avg_mshr_miss_latency::total 48003.378188                       # average overall mshr miss latency
system.cpu.dtb_walker_cache.tags.pwrStateResidencyTicks::UNDEFINED 1095239894500                       # Cumulative time (in ticks) in various power states
system.cpu.dtb_walker_cache.tags.replacements            0                       # number of replacements
system.cpu.dtb_walker_cache.tags.tagsinuse            0                       # Cycle average of tags in use
system.cpu.dtb_walker_cache.tags.total_refs            0                       # Total number of references to valid blocks.
system.cpu.dtb_walker_cache.tags.sampled_refs            0                       # Sample count of references to valid blocks.
system.cpu.dtb_walker_cache.tags.avg_refs          nan                       # Average number of references to valid blocks.
system.cpu.dtb_walker_cache.tags.warmup_cycle            0                       # Cycle when the warmup percentage was hit.
system.cpu.dtb_walker_cache.tags.tag_accesses            0                       # Number of tag accesses
system.cpu.dtb_walker_cache.tags.data_accesses            0                       # Number of data accesses
system.cpu.dtb_walker_cache.pwrStateResidencyTicks::UNDEFINED 1095239894500                       # Cumulative time (in ticks) in various power states
system.cpu.dtb_walker_cache.blocked_cycles::no_mshrs            0                       # number of cycles access was blocked
system.cpu.dtb_walker_cache.blocked_cycles::no_targets            0                       # number of cycles access was blocked
system.cpu.dtb_walker_cache.blocked::no_mshrs            0                       # number of cycles access was blocked
system.cpu.dtb_walker_cache.blocked::no_targets            0                       # number of cycles access was blocked
system.cpu.dtb_walker_cache.avg_blocked_cycles::no_mshrs          nan                       # average number of cycles each access was blocked
system.cpu.dtb_walker_cache.avg_blocked_cycles::no_targets          nan                       # average number of cycles each access was blocked
system.cpu.icache.tags.pwrStateResidencyTicks::UNDEFINED 1095239894500                       # Cumulative time (in ticks) in various power states
system.cpu.icache.tags.replacements               814                       # number of replacements
system.cpu.icache.tags.tagsinuse           893.489418                       # Cycle average of tags in use
system.cpu.icache.tags.total_refs           687396031                       # Total number of references to valid blocks.
system.cpu.icache.tags.sampled_refs              1831                       # Sample count of references to valid blocks.
system.cpu.icache.tags.avg_refs          375421.098307                       # Average number of references to valid blocks.
system.cpu.icache.tags.warmup_cycle                 0                       # Cycle when the warmup percentage was hit.
system.cpu.icache.tags.occ_blocks::cpu.inst   893.489418                       # Average occupied blocks per requestor
system.cpu.icache.tags.occ_percent::cpu.inst     0.872548                       # Average percentage of cache occupancy
system.cpu.icache.tags.occ_percent::total     0.872548                       # Average percentage of cache occupancy
system.cpu.icache.tags.occ_task_id_blocks::1024         1017                       # Occupied blocks per task id
system.cpu.icache.tags.age_task_id_blocks_1024::1           14                       # Occupied blocks per task id
system.cpu.icache.tags.age_task_id_blocks_1024::3           50                       # Occupied blocks per task id
system.cpu.icache.tags.age_task_id_blocks_1024::4          953                       # Occupied blocks per task id
system.cpu.icache.tags.occ_task_id_percent::1024     0.993164                       # Percentage of cache occupancy per task id
system.cpu.icache.tags.tag_accesses        2749593279                       # Number of tag accesses
system.cpu.icache.tags.data_accesses       2749593279                       # Number of data accesses
system.cpu.icache.pwrStateResidencyTicks::UNDEFINED 1095239894500                       # Cumulative time (in ticks) in various power states
system.cpu.icache.ReadReq_hits::cpu.inst    687396031                       # number of ReadReq hits
system.cpu.icache.ReadReq_hits::total       687396031                       # number of ReadReq hits
system.cpu.icache.demand_hits::cpu.inst     687396031                       # number of demand (read+write) hits
system.cpu.icache.demand_hits::total        687396031                       # number of demand (read+write) hits
system.cpu.icache.overall_hits::cpu.inst    687396031                       # number of overall hits
system.cpu.icache.overall_hits::total       687396031                       # number of overall hits
system.cpu.icache.ReadReq_misses::cpu.inst         1831                       # number of ReadReq misses
system.cpu.icache.ReadReq_misses::total          1831                       # number of ReadReq misses
system.cpu.icache.demand_misses::cpu.inst         1831                       # number of demand (read+write) misses
system.cpu.icache.demand_misses::total           1831                       # number of demand (read+write) misses
system.cpu.icache.overall_misses::cpu.inst         1831                       # number of overall misses
system.cpu.icache.overall_misses::total          1831                       # number of overall misses
system.cpu.icache.ReadReq_miss_latency::cpu.inst    166162000                       # number of ReadReq miss cycles
system.cpu.icache.ReadReq_miss_latency::total    166162000                       # number of ReadReq miss cycles
system.cpu.icache.demand_miss_latency::cpu.inst    166162000                       # number of demand (read+write) miss cycles
system.cpu.icache.demand_miss_latency::total    166162000                       # number of demand (read+write) miss cycles
system.cpu.icache.overall_miss_latency::cpu.inst    166162000                       # number of overall miss cycles
system.cpu.icache.overall_miss_latency::total    166162000                       # number of overall miss cycles
system.cpu.icache.ReadReq_accesses::cpu.inst    687397862                       # number of ReadReq accesses(hits+misses)
system.cpu.icache.ReadReq_accesses::total    687397862                       # number of ReadReq accesses(hits+misses)
system.cpu.icache.demand_accesses::cpu.inst    687397862                       # number of demand (read+write) accesses
system.cpu.icache.demand_accesses::total    687397862                       # number of demand (read+write) accesses
system.cpu.icache.overall_accesses::cpu.inst    687397862                       # number of overall (read+write) accesses
system.cpu.icache.overall_accesses::total    687397862                       # number of overall (read+write) accesses
system.cpu.icache.ReadReq_miss_rate::cpu.inst     0.000003                       # miss rate for ReadReq accesses
system.cpu.icache.ReadReq_miss_rate::total     0.000003                       # miss rate for ReadReq accesses
system.cpu.icache.demand_miss_rate::cpu.inst     0.000003                       # miss rate for demand accesses
system.cpu.icache.demand_miss_rate::total     0.000003                       # miss rate for demand accesses
system.cpu.icache.overall_miss_rate::cpu.inst     0.000003                       # miss rate for overall accesses
system.cpu.icache.overall_miss_rate::total     0.000003                       # miss rate for overall accesses
system.cpu.icache.ReadReq_avg_miss_latency::cpu.inst 90749.317313                       # average ReadReq miss latency
system.cpu.icache.ReadReq_avg_miss_latency::total 90749.317313                       # average ReadReq miss latency
system.cpu.icache.demand_avg_miss_latency::cpu.inst 90749.317313                       # average overall miss latency
system.cpu.icache.demand_avg_miss_latency::total 90749.317313                       # average overall miss latency
system.cpu.icache.overall_avg_miss_latency::cpu.inst 90749.317313                       # average overall miss latency
system.cpu.icache.overall_avg_miss_latency::total 90749.317313                       # average overall miss latency
system.cpu.icache.blocked_cycles::no_mshrs            0                       # number of cycles access was blocked
system.cpu.icache.blocked_cycles::no_targets            0                       # number of cycles access was blocked
system.cpu.icache.blocked::no_mshrs                 0                       # number of cycles access was blocked
system.cpu.icache.blocked::no_targets               0                       # number of cycles access was blocked
system.cpu.icache.avg_blocked_cycles::no_mshrs          nan                       # average number of cycles each access was blocked
system.cpu.icache.avg_blocked_cycles::no_targets          nan                       # average number of cycles each access was blocked
system.cpu.icache.writebacks::writebacks          814                       # number of writebacks
system.cpu.icache.writebacks::total               814                       # number of writebacks
system.cpu.icache.ReadReq_mshr_misses::cpu.inst         1831                       # number of ReadReq MSHR misses
system.cpu.icache.ReadReq_mshr_misses::total         1831                       # number of ReadReq MSHR misses
system.cpu.icache.demand_mshr_misses::cpu.inst         1831                       # number of demand (read+write) MSHR misses
system.cpu.icache.demand_mshr_misses::total         1831                       # number of demand (read+write) MSHR misses
system.cpu.icache.overall_mshr_misses::cpu.inst         1831                       # number of overall MSHR misses
system.cpu.icache.overall_mshr_misses::total         1831                       # number of overall MSHR misses
system.cpu.icache.ReadReq_mshr_miss_latency::cpu.inst    164331000                       # number of ReadReq MSHR miss cycles
system.cpu.icache.ReadReq_mshr_miss_latency::total    164331000                       # number of ReadReq MSHR miss cycles
system.cpu.icache.demand_mshr_miss_latency::cpu.inst    164331000                       # number of demand (read+write) MSHR miss cycles
system.cpu.icache.demand_mshr_miss_latency::total    164331000                       # number of demand (read+write) MSHR miss cycles
system.cpu.icache.overall_mshr_miss_latency::cpu.inst    164331000                       # number of overall MSHR miss cycles
system.cpu.icache.overall_mshr_miss_latency::total    164331000                       # number of overall MSHR miss cycles
system.cpu.icache.ReadReq_mshr_miss_rate::cpu.inst     0.000003                       # mshr miss rate for ReadReq accesses
system.cpu.icache.ReadReq_mshr_miss_rate::total     0.000003                       # mshr miss rate for ReadReq accesses
system.cpu.icache.demand_mshr_miss_rate::cpu.inst     0.000003                       # mshr miss rate for demand accesses
system.cpu.icache.demand_mshr_miss_rate::total     0.000003                       # mshr miss rate for demand accesses
system.cpu.icache.overall_mshr_miss_rate::cpu.inst     0.000003                       # mshr miss rate for overall accesses
system.cpu.icache.overall_mshr_miss_rate::total     0.000003                       # mshr miss rate for overall accesses
system.cpu.icache.ReadReq_avg_mshr_miss_latency::cpu.inst 89749.317313                       # average ReadReq mshr miss latency
system.cpu.icache.ReadReq_avg_mshr_miss_latency::total 89749.317313                       # average ReadReq mshr miss latency
system.cpu.icache.demand_avg_mshr_miss_latency::cpu.inst 89749.317313                       # average overall mshr miss latency
system.cpu.icache.demand_avg_mshr_miss_latency::total 89749.317313                       # average overall mshr miss latency
system.cpu.icache.overall_avg_mshr_miss_latency::cpu.inst 89749.317313                       # average overall mshr miss latency
system.cpu.icache.overall_avg_mshr_miss_latency::total 89749.317313                       # average overall mshr miss latency
system.cpu.itb_walker_cache.tags.pwrStateResidencyTicks::UNDEFINED 1095239894500                       # Cumulative time (in ticks) in various power states
system.cpu.itb_walker_cache.tags.replacements            0                       # number of replacements
system.cpu.itb_walker_cache.tags.tagsinuse            0                       # Cycle average of tags in use
system.cpu.itb_walker_cache.tags.total_refs            0                       # Total number of references to valid blocks.
system.cpu.itb_walker_cache.tags.sampled_refs            0                       # Sample count of references to valid blocks.
system.cpu.itb_walker_cache.tags.avg_refs          nan                       # Average number of references to valid blocks.
system.cpu.itb_walker_cache.tags.warmup_cycle            0                       # Cycle when the warmup percentage was hit.
system.cpu.itb_walker_cache.tags.tag_accesses            0                       # Number of tag accesses
system.cpu.itb_walker_cache.tags.data_accesses            0                       # Number of data accesses
system.cpu.itb_walker_cache.pwrStateResidencyTicks::UNDEFINED 1095239894500                       # Cumulative time (in ticks) in various power states
system.cpu.itb_walker_cache.blocked_cycles::no_mshrs            0                       # number of cycles access was blocked
system.cpu.itb_walker_cache.blocked_cycles::no_targets            0                       # number of cycles access was blocked
system.cpu.itb_walker_cache.blocked::no_mshrs            0                       # number of cycles access was blocked
system.cpu.itb_walker_cache.blocked::no_targets            0                       # number of cycles access was blocked
system.cpu.itb_walker_cache.avg_blocked_cycles::no_mshrs          nan                       # average number of cycles each access was blocked
system.cpu.itb_walker_cache.avg_blocked_cycles::no_targets          nan                       # average number of cycles each access was blocked
system.l2.tags.pwrStateResidencyTicks::UNDEFINED 1095239894500                       # Cumulative time (in ticks) in various power states
system.l2.tags.replacements                    979478                       # number of replacements
system.l2.tags.tagsinuse                 32637.591413                       # Cycle average of tags in use
system.l2.tags.total_refs                     3681522                       # Total number of references to valid blocks.
system.l2.tags.sampled_refs                   1012246                       # Sample count of references to valid blocks.
system.l2.tags.avg_refs                      3.636984                       # Average number of references to valid blocks.
system.l2.tags.warmup_cycle                5514340000                       # Cycle when the warmup percentage was hit.
system.l2.tags.occ_blocks::writebacks      480.100301                       # Average occupied blocks per requestor
system.l2.tags.occ_blocks::cpu.inst         34.192664                       # Average occupied blocks per requestor
system.l2.tags.occ_blocks::cpu.data      32123.298448                       # Average occupied blocks per requestor
system.l2.tags.occ_percent::writebacks       0.014651                       # Average percentage of cache occupancy
system.l2.tags.occ_percent::cpu.inst         0.001043                       # Average percentage of cache occupancy
system.l2.tags.occ_percent::cpu.data         0.980325                       # Average percentage of cache occupancy
system.l2.tags.occ_percent::total            0.996020                       # Average percentage of cache occupancy
system.l2.tags.occ_task_id_blocks::1024         32768                       # Occupied blocks per task id
system.l2.tags.age_task_id_blocks_1024::0            1                       # Occupied blocks per task id
system.l2.tags.age_task_id_blocks_1024::1           31                       # Occupied blocks per task id
system.l2.tags.age_task_id_blocks_1024::2           32                       # Occupied blocks per task id
system.l2.tags.age_task_id_blocks_1024::3          498                       # Occupied blocks per task id
system.l2.tags.age_task_id_blocks_1024::4        32206                       # Occupied blocks per task id
system.l2.tags.occ_task_id_percent::1024            1                       # Percentage of cache occupancy per task id
system.l2.tags.tag_accesses                  10429186                       # Number of tag accesses
system.l2.tags.data_accesses                 10429186                       # Number of data accesses
system.l2.pwrStateResidencyTicks::UNDEFINED 1095239894500                       # Cumulative time (in ticks) in various power states
system.l2.WritebackDirty_hits::writebacks      1081464                       # number of WritebackDirty hits
system.l2.WritebackDirty_hits::total          1081464                       # number of WritebackDirty hits
system.l2.WritebackClean_hits::writebacks          814                       # number of WritebackClean hits
system.l2.WritebackClean_hits::total              814                       # number of WritebackClean hits
system.l2.ReadExReq_hits::cpu.data             227862                       # number of ReadExReq hits
system.l2.ReadExReq_hits::total                227862                       # number of ReadExReq hits
system.l2.ReadCleanReq_hits::cpu.inst              19                       # number of ReadCleanReq hits
system.l2.ReadCleanReq_hits::total                 19                       # number of ReadCleanReq hits
system.l2.ReadSharedReq_hits::cpu.data        1138376                       # number of ReadSharedReq hits
system.l2.ReadSharedReq_hits::total           1138376                       # number of ReadSharedReq hits
system.l2.demand_hits::cpu.inst                    19                       # number of demand (read+write) hits
system.l2.demand_hits::cpu.data               1366238                       # number of demand (read+write) hits
system.l2.demand_hits::total                  1366257                       # number of demand (read+write) hits
system.l2.overall_hits::cpu.inst                   19                       # number of overall hits
system.l2.overall_hits::cpu.data              1366238                       # number of overall hits
system.l2.overall_hits::total                 1366257                       # number of overall hits
system.l2.ReadExReq_misses::cpu.data           474540                       # number of ReadExReq misses
system.l2.ReadExReq_misses::total              474540                       # number of ReadExReq misses
system.l2.ReadCleanReq_misses::cpu.inst          1812                       # number of ReadCleanReq misses
system.l2.ReadCleanReq_misses::total             1812                       # number of ReadCleanReq misses
system.l2.ReadSharedReq_misses::cpu.data       514183                       # number of ReadSharedReq misses
system.l2.ReadSharedReq_misses::total          514183                       # number of ReadSharedReq misses
system.l2.demand_misses::cpu.inst                1812                       # number of demand (read+write) misses
system.l2.demand_misses::cpu.data              988723                       # number of demand (read+write) misses
system.l2.demand_misses::total                 990535                       # number of demand (read+write) misses
system.l2.overall_misses::cpu.inst               1812                       # number of overall misses
system.l2.overall_misses::cpu.data             988723                       # number of overall misses
system.l2.overall_misses::total                990535                       # number of overall misses
system.l2.ReadExReq_miss_latency::cpu.data  44548042000                       # number of ReadExReq miss cycles
system.l2.ReadExReq_miss_latency::total   44548042000                       # number of ReadExReq miss cycles
system.l2.ReadCleanReq_miss_latency::cpu.inst    161384000                       # number of ReadCleanReq miss cycles
system.l2.ReadCleanReq_miss_latency::total    161384000                       # number of ReadCleanReq miss cycles
system.l2.ReadSharedReq_miss_latency::cpu.data  50620101000                       # number of ReadSharedReq miss cycles
system.l2.ReadSharedReq_miss_latency::total  50620101000                       # number of ReadSharedReq miss cycles
system.l2.demand_miss_latency::cpu.inst     161384000                       # number of demand (read+write) miss cycles
system.l2.demand_miss_latency::cpu.data   95168143000                       # number of demand (read+write) miss cycles
system.l2.demand_miss_latency::total      95329527000                       # number of demand (read+write) miss cycles
system.l2.overall_miss_latency::cpu.inst    161384000                       # number of overall miss cycles
system.l2.overall_miss_latency::cpu.data  95168143000                       # number of overall miss cycles
system.l2.overall_miss_latency::total     95329527000                       # number of overall miss cycles
system.l2.WritebackDirty_accesses::writebacks      1081464                       # number of WritebackDirty accesses(hits+misses)
system.l2.WritebackDirty_accesses::total      1081464                       # number of WritebackDirty accesses(hits+misses)
system.l2.WritebackClean_accesses::writebacks          814                       # number of WritebackClean accesses(hits+misses)
system.l2.WritebackClean_accesses::total          814                       # number of WritebackClean accesses(hits+misses)
system.l2.ReadExReq_accesses::cpu.data         702402                       # number of ReadExReq accesses(hits+misses)
system.l2.ReadExReq_accesses::total            702402                       # number of ReadExReq accesses(hits+misses)
system.l2.ReadCleanReq_accesses::cpu.inst         1831                       # number of ReadCleanReq accesses(hits+misses)
system.l2.ReadCleanReq_accesses::total           1831                       # number of ReadCleanReq accesses(hits+misses)
system.l2.ReadSharedReq_accesses::cpu.data      1652559                       # number of ReadSharedReq accesses(hits+misses)
system.l2.ReadSharedReq_accesses::total       1652559                       # number of ReadSharedReq accesses(hits+misses)
system.l2.demand_accesses::cpu.inst              1831                       # number of demand (read+write) accesses
system.l2.demand_accesses::cpu.data           2354961                       # number of demand (read+write) accesses
system.l2.demand_accesses::total              2356792                       # number of demand (read+write) accesses
system.l2.overall_accesses::cpu.inst             1831                       # number of overall (read+write) accesses
system.l2.overall_accesses::cpu.data          2354961                       # number of overall (read+write) accesses
system.l2.overall_accesses::total             2356792                       # number of overall (read+write) accesses
system.l2.ReadExReq_miss_rate::cpu.data      0.675596                       # miss rate for ReadExReq accesses
system.l2.ReadExReq_miss_rate::total         0.675596                       # miss rate for ReadExReq accesses
system.l2.ReadCleanReq_miss_rate::cpu.inst     0.989623                       # miss rate for ReadCleanReq accesses
system.l2.ReadCleanReq_miss_rate::total      0.989623                       # miss rate for ReadCleanReq accesses
system.l2.ReadSharedReq_miss_rate::cpu.data     0.311144                       # miss rate for ReadSharedReq accesses
system.l2.ReadSharedReq_miss_rate::total     0.311144                       # miss rate for ReadSharedReq accesses
system.l2.demand_miss_rate::cpu.inst         0.989623                       # miss rate for demand accesses
system.l2.demand_miss_rate::cpu.data         0.419847                       # miss rate for demand accesses
system.l2.demand_miss_rate::total            0.420290                       # miss rate for demand accesses
system.l2.overall_miss_rate::cpu.inst        0.989623                       # miss rate for overall accesses
system.l2.overall_miss_rate::cpu.data        0.419847                       # miss rate for overall accesses
system.l2.overall_miss_rate::total           0.420290                       # miss rate for overall accesses
system.l2.ReadExReq_avg_miss_latency::cpu.data 93876.263329                       # average ReadExReq miss latency
system.l2.ReadExReq_avg_miss_latency::total 93876.263329                       # average ReadExReq miss latency
system.l2.ReadCleanReq_avg_miss_latency::cpu.inst 89064.017660                       # average ReadCleanReq miss latency
system.l2.ReadCleanReq_avg_miss_latency::total 89064.017660                       # average ReadCleanReq miss latency
system.l2.ReadSharedReq_avg_miss_latency::cpu.data 98447.636347                       # average ReadSharedReq miss latency
system.l2.ReadSharedReq_avg_miss_latency::total 98447.636347                       # average ReadSharedReq miss latency
system.l2.demand_avg_miss_latency::cpu.inst 89064.017660                       # average overall miss latency
system.l2.demand_avg_miss_latency::cpu.data 96253.594788                       # average overall miss latency
system.l2.demand_avg_miss_latency::total 96240.442791                       # average overall miss latency
system.l2.overall_avg_miss_latency::cpu.inst 89064.017660                       # average overall miss latency
system.l2.overall_avg_miss_latency::cpu.data 96253.594788                       # average overall miss latency
system.l2.overall_avg_miss_latency::total 96240.442791                       # average overall miss latency
system.l2.blocked_cycles::no_mshrs                  0                       # number of cycles access was blocked
system.l2.blocked_cycles::no_targets                0                       # number of cycles access was blocked
system.l2.blocked::no_mshrs                         0                       # number of cycles access was blocked
system.l2.blocked::no_targets                       0                       # number of cycles access was blocked
system.l2.avg_blocked_cycles::no_mshrs            nan                       # average number of cycles each access was blocked
system.l2.avg_blocked_cycles::no_targets          nan                       # average number of cycles each access was blocked
system.l2.writebacks::writebacks               562574                       # number of writebacks
system.l2.writebacks::total                    562574                       # number of writebacks
system.l2.CleanEvict_mshr_misses::writebacks        14702                       # number of CleanEvict MSHR misses
system.l2.CleanEvict_mshr_misses::total         14702                       # number of CleanEvict MSHR misses
system.l2.ReadExReq_mshr_misses::cpu.data       474540                       # number of ReadExReq MSHR misses
system.l2.ReadExReq_mshr_misses::total         474540                       # number of ReadExReq MSHR misses
system.l2.ReadCleanReq_mshr_misses::cpu.inst         1812                       # number of ReadCleanReq MSHR misses
system.l2.ReadCleanReq_mshr_misses::total         1812                       # number of ReadCleanReq MSHR misses
system.l2.ReadSharedReq_mshr_misses::cpu.data       514183                       # number of ReadSharedReq MSHR misses
system.l2.ReadSharedReq_mshr_misses::total       514183                       # number of ReadSharedReq MSHR misses
system.l2.demand_mshr_misses::cpu.inst           1812                       # number of demand (read+write) MSHR misses
system.l2.demand_mshr_misses::cpu.data         988723                       # number of demand (read+write) MSHR misses
system.l2.demand_mshr_misses::total            990535                       # number of demand (read+write) MSHR misses
system.l2.overall_mshr_misses::cpu.inst          1812                       # number of overall MSHR misses
system.l2.overall_mshr_misses::cpu.data        988723                       # number of overall MSHR misses
system.l2.overall_mshr_misses::total           990535                       # number of overall MSHR misses
system.l2.ReadExReq_mshr_miss_latency::cpu.data  39802642000                       # number of ReadExReq MSHR miss cycles
system.l2.ReadExReq_mshr_miss_latency::total  39802642000                       # number of ReadExReq MSHR miss cycles
system.l2.ReadCleanReq_mshr_miss_latency::cpu.inst    143264000                       # number of ReadCleanReq MSHR miss cycles
system.l2.ReadCleanReq_mshr_miss_latency::total    143264000                       # number of ReadCleanReq MSHR miss cycles
system.l2.ReadSharedReq_mshr_miss_latency::cpu.data  45478271000                       # number of ReadSharedReq MSHR miss cycles
system.l2.ReadSharedReq_mshr_miss_latency::total  45478271000                       # number of ReadSharedReq MSHR miss cycles
system.l2.demand_mshr_miss_latency::cpu.inst    143264000                       # number of demand (read+write) MSHR miss cycles
system.l2.demand_mshr_miss_latency::cpu.data  85280913000                       # number of demand (read+write) MSHR miss cycles
system.l2.demand_mshr_miss_latency::total  85424177000                       # number of demand (read+write) MSHR miss cycles
system.l2.overall_mshr_miss_latency::cpu.inst    143264000                       # number of overall MSHR miss cycles
system.l2.overall_mshr_miss_latency::cpu.data  85280913000                       # number of overall MSHR miss cycles
system.l2.overall_mshr_miss_latency::total  85424177000                       # number of overall MSHR miss cycles
system.l2.CleanEvict_mshr_miss_rate::writebacks          inf                       # mshr miss rate for CleanEvict accesses
system.l2.CleanEvict_mshr_miss_rate::total          inf                       # mshr miss rate for CleanEvict accesses
system.l2.ReadExReq_mshr_miss_rate::cpu.data     0.675596                       # mshr miss rate for ReadExReq accesses
system.l2.ReadExReq_mshr_miss_rate::total     0.675596                       # mshr miss rate for ReadExReq accesses
system.l2.ReadCleanReq_mshr_miss_rate::cpu.inst     0.989623                       # mshr miss rate for ReadCleanReq accesses
system.l2.ReadCleanReq_mshr_miss_rate::total     0.989623                       # mshr miss rate for ReadCleanReq accesses
system.l2.ReadSharedReq_mshr_miss_rate::cpu.data     0.311144                       # mshr miss rate for ReadSharedReq accesses
system.l2.ReadSharedReq_mshr_miss_rate::total     0.311144                       # mshr miss rate for ReadSharedReq accesses
system.l2.demand_mshr_miss_rate::cpu.inst     0.989623                       # mshr miss rate for demand accesses
system.l2.demand_mshr_miss_rate::cpu.data     0.419847                       # mshr miss rate for demand accesses
system.l2.demand_mshr_miss_rate::total       0.420290                       # mshr miss rate for demand accesses
system.l2.overall_mshr_miss_rate::cpu.inst     0.989623                       # mshr miss rate for overall accesses
system.l2.overall_mshr_miss_rate::cpu.data     0.419847                       # mshr miss rate for overall accesses
system.l2.overall_mshr_miss_rate::total      0.420290                       # mshr miss rate for overall accesses
system.l2.ReadExReq_avg_mshr_miss_latency::cpu.data 83876.263329                       # average ReadExReq mshr miss latency
system.l2.ReadExReq_avg_mshr_miss_latency::total 83876.263329                       # average ReadExReq mshr miss latency
system.l2.ReadCleanReq_avg_mshr_miss_latency::cpu.inst 79064.017660                       # average ReadCleanReq mshr miss latency
system.l2.ReadCleanReq_avg_mshr_miss_latency::total 79064.017660                       # average ReadCleanReq mshr miss latency
system.l2.ReadSharedReq_avg_mshr_miss_latency::cpu.data 88447.636347                       # average ReadSharedReq mshr miss latency
system.l2.ReadSharedReq_avg_mshr_miss_latency::total 88447.636347                       # average ReadSharedReq mshr miss latency
system.l2.demand_avg_mshr_miss_latency::cpu.inst 79064.017660                       # average overall mshr miss latency
system.l2.demand_avg_mshr_miss_latency::cpu.data 86253.594788                       # average overall mshr miss latency
system.l2.demand_avg_mshr_miss_latency::total 86240.442791                       # average overall mshr miss latency
system.l2.overall_avg_mshr_miss_latency::cpu.inst 79064.017660                       # average overall mshr miss latency
system.l2.overall_avg_mshr_miss_latency::cpu.data 86253.594788                       # average overall mshr miss latency
system.l2.overall_avg_mshr_miss_latency::total 86240.442791                       # average overall mshr miss latency
system.membus.snoop_filter.tot_requests       1947270                       # Total number of requests made to the snoop filter.
system.membus.snoop_filter.hit_single_requests       956735                       # Number of requests hitting in the snoop filter with a single holder of the requested data.
system.membus.snoop_filter.hit_multi_requests            0                       # Number of requests hitting in the snoop filter with multiple (>1) holders of the requested data.
system.membus.snoop_filter.tot_snoops               0                       # Total number of snoops made to the snoop filter.
system.membus.snoop_filter.hit_single_snoops            0                       # Number of snoops hitting in the snoop filter with a single holder of the requested data.
system.membus.snoop_filter.hit_multi_snoops            0                       # Number of snoops hitting in the snoop filter with multiple (>1) holders of the requested data.
system.membus.pwrStateResidencyTicks::UNDEFINED 1095239894500                       # Cumulative time (in ticks) in various power states
system.membus.trans_dist::ReadResp             515995                       # Transaction distribution
system.membus.trans_dist::WritebackDirty       562574                       # Transaction distribution
system.membus.trans_dist::CleanEvict           394161                       # Transaction distribution
system.membus.trans_dist::ReadExReq            474540                       # Transaction distribution
system.membus.trans_dist::ReadExResp           474540                       # Transaction distribution
system.membus.trans_dist::ReadSharedReq        515995                       # Transaction distribution
system.membus.pkt_count_system.l2.mem_side::system.mem_ctrls.port      2937805                       # Packet count per connected master and slave (bytes)
system.membus.pkt_count_system.l2.mem_side::total      2937805                       # Packet count per connected master and slave (bytes)
system.membus.pkt_count::total                2937805                       # Packet count per connected master and slave (bytes)
system.membus.pkt_size_system.l2.mem_side::system.mem_ctrls.port     49699488                       # Cumulative packet size per connected master and slave (bytes)
system.membus.pkt_size_system.l2.mem_side::total     49699488                       # Cumulative packet size per connected master and slave (bytes)
system.membus.pkt_size::total                49699488                       # Cumulative packet size per connected master and slave (bytes)
system.membus.snoops                                0                       # Total snoops (count)
system.membus.snoopTraffic                          0                       # Total snoop traffic (bytes)
system.membus.snoop_fanout::samples            990535                       # Request fanout histogram
system.membus.snoop_fanout::mean                    0                       # Request fanout histogram
system.membus.snoop_fanout::stdev                   0                       # Request fanout histogram
system.membus.snoop_fanout::underflows              0      0.00%      0.00% # Request fanout histogram
system.membus.snoop_fanout::0                  990535    100.00%    100.00% # Request fanout histogram
system.membus.snoop_fanout::1                       0      0.00%    100.00% # Request fanout histogram
system.membus.snoop_fanout::overflows               0      0.00%    100.00% # Request fanout histogram
system.membus.snoop_fanout::min_value               0                       # Request fanout histogram
system.membus.snoop_fanout::max_value               0                       # Request fanout histogram
system.membus.snoop_fanout::total              990535                       # Request fanout histogram
system.membus.reqLayer2.occupancy          3072429000                       # Layer occupancy (ticks)
system.membus.reqLayer2.utilization               0.3                       # Layer utilization (%)
system.membus.respLayer1.occupancy         3365272500                       # Layer occupancy (ticks)
system.membus.respLayer1.utilization              0.3                       # Layer utilization (%)
system.tol2bus.snoop_filter.tot_requests      4708471                       # Total number of requests made to the snoop filter.
system.tol2bus.snoop_filter.hit_single_requests      2351679                       # Number of requests hitting in the snoop filter with a single holder of the requested data.
system.tol2bus.snoop_filter.hit_multi_requests            1                       # Number of requests hitting in the snoop filter with multiple (>1) holders of the requested data.
system.tol2bus.snoop_filter.tot_snoops          37445                       # Total number of snoops made to the snoop filter.
system.tol2bus.snoop_filter.hit_single_snoops        37445                       # Number of snoops hitting in the snoop filter with a single holder of the requested data.
system.tol2bus.snoop_filter.hit_multi_snoops            0                       # Number of snoops hitting in the snoop filter with multiple (>1) holders of the requested data.
system.tol2bus.pwrStateResidencyTicks::UNDEFINED 1095239894500                       # Cumulative time (in ticks) in various power states
system.tol2bus.trans_dist::ReadResp           1654390                       # Transaction distribution
system.tol2bus.trans_dist::WritebackDirty      1644038                       # Transaction distribution
system.tol2bus.trans_dist::WritebackClean          814                       # Transaction distribution
system.tol2bus.trans_dist::CleanEvict         1686305                       # Transaction distribution
system.tol2bus.trans_dist::ReadExReq           702402                       # Transaction distribution
system.tol2bus.trans_dist::ReadExResp          702402                       # Transaction distribution
system.tol2bus.trans_dist::ReadCleanReq          1831                       # Transaction distribution
system.tol2bus.trans_dist::ReadSharedReq      1652559                       # Transaction distribution
system.tol2bus.pkt_count_system.cpu.icache.mem_side::system.l2.cpu_side         4476                       # Packet count per connected master and slave (bytes)
system.tol2bus.pkt_count_system.cpu.dcache.mem_side::system.l2.cpu_side      7060787                       # Packet count per connected master and slave (bytes)
system.tol2bus.pkt_count::total               7065263                       # Packet count per connected master and slave (bytes)
system.tol2bus.pkt_size_system.cpu.icache.mem_side::system.l2.cpu_side        84640                       # Cumulative packet size per connected master and slave (bytes)
system.tol2bus.pkt_size_system.cpu.dcache.mem_side::system.l2.cpu_side    109965600                       # Cumulative packet size per connected master and slave (bytes)
system.tol2bus.pkt_size::total              110050240                       # Cumulative packet size per connected master and slave (bytes)
system.tol2bus.snoops                          979478                       # Total snoops (count)
system.tol2bus.snoopTraffic                  18002368                       # Total snoop traffic (bytes)
system.tol2bus.snoop_fanout::samples          3336270                       # Request fanout histogram
system.tol2bus.snoop_fanout::mean            0.011224                       # Request fanout histogram
system.tol2bus.snoop_fanout::stdev           0.105347                       # Request fanout histogram
system.tol2bus.snoop_fanout::underflows             0      0.00%      0.00% # Request fanout histogram
system.tol2bus.snoop_fanout::0                3298824     98.88%     98.88% # Request fanout histogram
system.tol2bus.snoop_fanout::1                  37446      1.12%    100.00% # Request fanout histogram
system.tol2bus.snoop_fanout::2                      0      0.00%    100.00% # Request fanout histogram
system.tol2bus.snoop_fanout::3                      0      0.00%    100.00% # Request fanout histogram
system.tol2bus.snoop_fanout::4                      0      0.00%    100.00% # Request fanout histogram
system.tol2bus.snoop_fanout::overflows              0      0.00%    100.00% # Request fanout histogram
system.tol2bus.snoop_fanout::min_value              0                       # Request fanout histogram
system.tol2bus.snoop_fanout::max_value              1                       # Request fanout histogram
system.tol2bus.snoop_fanout::total            3336270                       # Request fanout histogram
system.tol2bus.reqLayer0.occupancy         2895374500                       # Layer occupancy (ticks)
system.tol2bus.reqLayer0.utilization              0.3                       # Layer utilization (%)
system.tol2bus.respLayer0.occupancy           1831000                       # Layer occupancy (ticks)
system.tol2bus.respLayer0.utilization             0.0                       # Layer utilization (%)
system.tol2bus.respLayer1.occupancy        2354961000                       # Layer occupancy (ticks)
system.tol2bus.respLayer1.utilization             0.2                       # Layer utilization (%)

---------- End Simulation Statistics   ----------
