
---------- Begin Simulation Statistics ----------
sim_seconds                                  1.708497                       # Number of seconds simulated
sim_ticks                                1708497116500                       # Number of ticks simulated
final_tick                               1708497116500                       # Number of ticks from beginning of simulation (restored from checkpoints and never reset)
sim_freq                                 1000000000000                       # Frequency of simulated ticks
host_inst_rate                                 517308                       # Simulator instruction rate (inst/s)
host_op_rate                                   906648                       # Simulator op (including micro ops) rate (op/s)
host_tick_rate                             1767638567                       # Simulator tick rate (ticks/s)
host_mem_usage                                 652000                       # Number of bytes of host memory used
host_seconds                                   966.54                       # Real time elapsed on the host
sim_insts                                   500000000                       # Number of instructions simulated
sim_ops                                     876313784                       # Number of ops (including micro ops) simulated
system.voltage_domain.voltage                       1                       # Voltage in Volts
system.clk_domain.clock                          1000                       # Clock period in ticks
system.mem_ctrls.pwrStateResidencyTicks::UNDEFINED 1708497116500                       # Cumulative time (in ticks) in various power states
system.mem_ctrls.bytes_read::cpu.inst           43136                       # Number of bytes read from this memory
system.mem_ctrls.bytes_read::cpu.data       444059648                       # Number of bytes read from this memory
system.mem_ctrls.bytes_read::total          444102784                       # Number of bytes read from this memory
system.mem_ctrls.bytes_inst_read::cpu.inst        43136                       # Number of instructions bytes read from this memory
system.mem_ctrls.bytes_inst_read::total         43136                       # Number of instructions bytes read from this memory
system.mem_ctrls.bytes_written::writebacks     75659008                       # Number of bytes written to this memory
system.mem_ctrls.bytes_written::total        75659008                       # Number of bytes written to this memory
system.mem_ctrls.num_reads::cpu.inst              674                       # Number of read requests responded to by this memory
system.mem_ctrls.num_reads::cpu.data          6938432                       # Number of read requests responded to by this memory
system.mem_ctrls.num_reads::total             6939106                       # Number of read requests responded to by this memory
system.mem_ctrls.num_writes::writebacks       1182172                       # Number of write requests responded to by this memory
system.mem_ctrls.num_writes::total            1182172                       # Number of write requests responded to by this memory
system.mem_ctrls.bw_read::cpu.inst              25248                       # Total read bandwidth from this memory (bytes/s)
system.mem_ctrls.bw_read::cpu.data          259912436                       # Total read bandwidth from this memory (bytes/s)
system.mem_ctrls.bw_read::total             259937684                       # Total read bandwidth from this memory (bytes/s)
system.mem_ctrls.bw_inst_read::cpu.inst         25248                       # Instruction read bandwidth from this memory (bytes/s)
system.mem_ctrls.bw_inst_read::total            25248                       # Instruction read bandwidth from this memory (bytes/s)
system.mem_ctrls.bw_write::writebacks        44283954                       # Write bandwidth from this memory (bytes/s)
system.mem_ctrls.bw_write::total             44283954                       # Write bandwidth from this memory (bytes/s)
system.mem_ctrls.bw_total::writebacks        44283954                       # Total bandwidth to/from this memory (bytes/s)
system.mem_ctrls.bw_total::cpu.inst             25248                       # Total bandwidth to/from this memory (bytes/s)
system.mem_ctrls.bw_total::cpu.data         259912436                       # Total bandwidth to/from this memory (bytes/s)
system.mem_ctrls.bw_total::total            304221638                       # Total bandwidth to/from this memory (bytes/s)
system.mem_ctrls.readReqs                     6939106                       # Number of read requests accepted
system.mem_ctrls.writeReqs                    1182172                       # Number of write requests accepted
system.mem_ctrls.readBursts                   6939106                       # Number of DRAM read bursts, including those serviced by the write queue
system.mem_ctrls.writeBursts                  1182172                       # Number of DRAM write bursts, including those merged in the write queue
system.mem_ctrls.bytesReadDRAM              443555264                       # Total number of bytes read from DRAM
system.mem_ctrls.bytesReadWrQ                  547520                       # Total number of bytes read from write queue
system.mem_ctrls.bytesWritten                75657984                       # Total number of bytes written to DRAM
system.mem_ctrls.bytesReadSys               444102784                       # Total read bytes from the system interface side
system.mem_ctrls.bytesWrittenSys             75659008                       # Total written bytes from the system interface side
system.mem_ctrls.servicedByWrQ                   8555                       # Number of DRAM read bursts serviced by the write queue
system.mem_ctrls.mergedWrBursts                     0                       # Number of DRAM write bursts merged with an existing one
system.mem_ctrls.neitherReadNorWriteReqs            0                       # Number of requests that are neither read nor write
system.mem_ctrls.perBankRdBursts::0            446048                       # Per bank write bursts
system.mem_ctrls.perBankRdBursts::1            429905                       # Per bank write bursts
system.mem_ctrls.perBankRdBursts::2            429829                       # Per bank write bursts
system.mem_ctrls.perBankRdBursts::3            436549                       # Per bank write bursts
system.mem_ctrls.perBankRdBursts::4            421492                       # Per bank write bursts
system.mem_ctrls.perBankRdBursts::5            425543                       # Per bank write bursts
system.mem_ctrls.perBankRdBursts::6            429441                       # Per bank write bursts
system.mem_ctrls.perBankRdBursts::7            422211                       # Per bank write bursts
system.mem_ctrls.perBankRdBursts::8            429428                       # Per bank write bursts
system.mem_ctrls.perBankRdBursts::9            427577                       # Per bank write bursts
system.mem_ctrls.perBankRdBursts::10           429790                       # Per bank write bursts
system.mem_ctrls.perBankRdBursts::11           433186                       # Per bank write bursts
system.mem_ctrls.perBankRdBursts::12           441799                       # Per bank write bursts
system.mem_ctrls.perBankRdBursts::13           444572                       # Per bank write bursts
system.mem_ctrls.perBankRdBursts::14           440973                       # Per bank write bursts
system.mem_ctrls.perBankRdBursts::15           442208                       # Per bank write bursts
system.mem_ctrls.perBankWrBursts::0             76087                       # Per bank write bursts
system.mem_ctrls.perBankWrBursts::1             75738                       # Per bank write bursts
system.mem_ctrls.perBankWrBursts::2             75556                       # Per bank write bursts
system.mem_ctrls.perBankWrBursts::3             76839                       # Per bank write bursts
system.mem_ctrls.perBankWrBursts::4             72909                       # Per bank write bursts
system.mem_ctrls.perBankWrBursts::5             70301                       # Per bank write bursts
system.mem_ctrls.perBankWrBursts::6             72644                       # Per bank write bursts
system.mem_ctrls.perBankWrBursts::7             70639                       # Per bank write bursts
system.mem_ctrls.perBankWrBursts::8             71384                       # Per bank write bursts
system.mem_ctrls.perBankWrBursts::9             70520                       # Per bank write bursts
system.mem_ctrls.perBankWrBursts::10            70667                       # Per bank write bursts
system.mem_ctrls.perBankWrBursts::11            74239                       # Per bank write bursts
system.mem_ctrls.perBankWrBursts::12            76505                       # Per bank write bursts
system.mem_ctrls.perBankWrBursts::13            76218                       # Per bank write bursts
system.mem_ctrls.perBankWrBursts::14            75833                       # Per bank write bursts
system.mem_ctrls.perBankWrBursts::15            76077                       # Per bank write bursts
system.mem_ctrls.numRdRetry                         0                       # Number of times read queue was full causing retry
system.mem_ctrls.numWrRetry                         0                       # Number of times write queue was full causing retry
system.mem_ctrls.totGap                  1708480075500                       # Total gap between requests
system.mem_ctrls.readPktSize::0                     0                       # Read request sizes (log2)
system.mem_ctrls.readPktSize::1                     0                       # Read request sizes (log2)
system.mem_ctrls.readPktSize::2                     0                       # Read request sizes (log2)
system.mem_ctrls.readPktSize::3                     0                       # Read request sizes (log2)
system.mem_ctrls.readPktSize::4                     0                       # Read request sizes (log2)
system.mem_ctrls.readPktSize::5                     0                       # Read request sizes (log2)
system.mem_ctrls.readPktSize::6               6939106                       # Read request sizes (log2)
system.mem_ctrls.writePktSize::0                    0                       # Write request sizes (log2)
system.mem_ctrls.writePktSize::1                    0                       # Write request sizes (log2)
system.mem_ctrls.writePktSize::2                    0                       # Write request sizes (log2)
system.mem_ctrls.writePktSize::3                    0                       # Write request sizes (log2)
system.mem_ctrls.writePktSize::4                    0                       # Write request sizes (log2)
system.mem_ctrls.writePktSize::5                    0                       # Write request sizes (log2)
system.mem_ctrls.writePktSize::6              1182172                       # Write request sizes (log2)
system.mem_ctrls.rdQLenPdf::0                 6930551                       # What read queue length does an incoming req see
system.mem_ctrls.rdQLenPdf::1                       0                       # What read queue length does an incoming req see
system.mem_ctrls.rdQLenPdf::2                       0                       # What read queue length does an incoming req see
system.mem_ctrls.rdQLenPdf::3                       0                       # What read queue length does an incoming req see
system.mem_ctrls.rdQLenPdf::4                       0                       # What read queue length does an incoming req see
system.mem_ctrls.rdQLenPdf::5                       0                       # What read queue length does an incoming req see
system.mem_ctrls.rdQLenPdf::6                       0                       # What read queue length does an incoming req see
system.mem_ctrls.rdQLenPdf::7                       0                       # What read queue length does an incoming req see
system.mem_ctrls.rdQLenPdf::8                       0                       # What read queue length does an incoming req see
system.mem_ctrls.rdQLenPdf::9                       0                       # What read queue length does an incoming req see
system.mem_ctrls.rdQLenPdf::10                      0                       # What read queue length does an incoming req see
system.mem_ctrls.rdQLenPdf::11                      0                       # What read queue length does an incoming req see
system.mem_ctrls.rdQLenPdf::12                      0                       # What read queue length does an incoming req see
system.mem_ctrls.rdQLenPdf::13                      0                       # What read queue length does an incoming req see
system.mem_ctrls.rdQLenPdf::14                      0                       # What read queue length does an incoming req see
system.mem_ctrls.rdQLenPdf::15                      0                       # What read queue length does an incoming req see
system.mem_ctrls.rdQLenPdf::16                      0                       # What read queue length does an incoming req see
system.mem_ctrls.rdQLenPdf::17                      0                       # What read queue length does an incoming req see
system.mem_ctrls.rdQLenPdf::18                      0                       # What read queue length does an incoming req see
system.mem_ctrls.rdQLenPdf::19                      0                       # What read queue length does an incoming req see
system.mem_ctrls.rdQLenPdf::20                      0                       # What read queue length does an incoming req see
system.mem_ctrls.rdQLenPdf::21                      0                       # What read queue length does an incoming req see
system.mem_ctrls.rdQLenPdf::22                      0                       # What read queue length does an incoming req see
system.mem_ctrls.rdQLenPdf::23                      0                       # What read queue length does an incoming req see
system.mem_ctrls.rdQLenPdf::24                      0                       # What read queue length does an incoming req see
system.mem_ctrls.rdQLenPdf::25                      0                       # What read queue length does an incoming req see
system.mem_ctrls.rdQLenPdf::26                      0                       # What read queue length does an incoming req see
system.mem_ctrls.rdQLenPdf::27                      0                       # What read queue length does an incoming req see
system.mem_ctrls.rdQLenPdf::28                      0                       # What read queue length does an incoming req see
system.mem_ctrls.rdQLenPdf::29                      0                       # What read queue length does an incoming req see
system.mem_ctrls.rdQLenPdf::30                      0                       # What read queue length does an incoming req see
system.mem_ctrls.rdQLenPdf::31                      0                       # What read queue length does an incoming req see
system.mem_ctrls.wrQLenPdf::0                       1                       # What write queue length does an incoming req see
system.mem_ctrls.wrQLenPdf::1                       1                       # What write queue length does an incoming req see
system.mem_ctrls.wrQLenPdf::2                       1                       # What write queue length does an incoming req see
system.mem_ctrls.wrQLenPdf::3                       1                       # What write queue length does an incoming req see
system.mem_ctrls.wrQLenPdf::4                       1                       # What write queue length does an incoming req see
system.mem_ctrls.wrQLenPdf::5                       1                       # What write queue length does an incoming req see
system.mem_ctrls.wrQLenPdf::6                       1                       # What write queue length does an incoming req see
system.mem_ctrls.wrQLenPdf::7                       1                       # What write queue length does an incoming req see
system.mem_ctrls.wrQLenPdf::8                       1                       # What write queue length does an incoming req see
system.mem_ctrls.wrQLenPdf::9                       1                       # What write queue length does an incoming req see
system.mem_ctrls.wrQLenPdf::10                      1                       # What write queue length does an incoming req see
system.mem_ctrls.wrQLenPdf::11                      1                       # What write queue length does an incoming req see
system.mem_ctrls.wrQLenPdf::12                      1                       # What write queue length does an incoming req see
system.mem_ctrls.wrQLenPdf::13                      1                       # What write queue length does an incoming req see
system.mem_ctrls.wrQLenPdf::14                      1                       # What write queue length does an incoming req see
system.mem_ctrls.wrQLenPdf::15                  21991                       # What write queue length does an incoming req see
system.mem_ctrls.wrQLenPdf::16                  24068                       # What write queue length does an incoming req see
system.mem_ctrls.wrQLenPdf::17                  70986                       # What write queue length does an incoming req see
system.mem_ctrls.wrQLenPdf::18                  71007                       # What write queue length does an incoming req see
system.mem_ctrls.wrQLenPdf::19                  71005                       # What write queue length does an incoming req see
system.mem_ctrls.wrQLenPdf::20                  71005                       # What write queue length does an incoming req see
system.mem_ctrls.wrQLenPdf::21                  71009                       # What write queue length does an incoming req see
system.mem_ctrls.wrQLenPdf::22                  71005                       # What write queue length does an incoming req see
system.mem_ctrls.wrQLenPdf::23                  71008                       # What write queue length does an incoming req see
system.mem_ctrls.wrQLenPdf::24                  71009                       # What write queue length does an incoming req see
system.mem_ctrls.wrQLenPdf::25                  71005                       # What write queue length does an incoming req see
system.mem_ctrls.wrQLenPdf::26                  71007                       # What write queue length does an incoming req see
system.mem_ctrls.wrQLenPdf::27                  71009                       # What write queue length does an incoming req see
system.mem_ctrls.wrQLenPdf::28                  71009                       # What write queue length does an incoming req see
system.mem_ctrls.wrQLenPdf::29                  71015                       # What write queue length does an incoming req see
system.mem_ctrls.wrQLenPdf::30                  71008                       # What write queue length does an incoming req see
system.mem_ctrls.wrQLenPdf::31                  71007                       # What write queue length does an incoming req see
system.mem_ctrls.wrQLenPdf::32                  71004                       # What write queue length does an incoming req see
system.mem_ctrls.wrQLenPdf::33                      0                       # What write queue length does an incoming req see
system.mem_ctrls.wrQLenPdf::34                      0                       # What write queue length does an incoming req see
system.mem_ctrls.wrQLenPdf::35                      0                       # What write queue length does an incoming req see
system.mem_ctrls.wrQLenPdf::36                      0                       # What write queue length does an incoming req see
system.mem_ctrls.wrQLenPdf::37                      0                       # What write queue length does an incoming req see
system.mem_ctrls.wrQLenPdf::38                      0                       # What write queue length does an incoming req see
system.mem_ctrls.wrQLenPdf::39                      0                       # What write queue length does an incoming req see
system.mem_ctrls.wrQLenPdf::40                      0                       # What write queue length does an incoming req see
system.mem_ctrls.wrQLenPdf::41                      0                       # What write queue length does an incoming req see
system.mem_ctrls.wrQLenPdf::42                      0                       # What write queue length does an incoming req see
system.mem_ctrls.wrQLenPdf::43                      0                       # What write queue length does an incoming req see
system.mem_ctrls.wrQLenPdf::44                      0                       # What write queue length does an incoming req see
system.mem_ctrls.wrQLenPdf::45                      0                       # What write queue length does an incoming req see
system.mem_ctrls.wrQLenPdf::46                      0                       # What write queue length does an incoming req see
system.mem_ctrls.wrQLenPdf::47                      0                       # What write queue length does an incoming req see
system.mem_ctrls.wrQLenPdf::48                      0                       # What write queue length does an incoming req see
system.mem_ctrls.wrQLenPdf::49                      0                       # What write queue length does an incoming req see
system.mem_ctrls.wrQLenPdf::50                      0                       # What write queue length does an incoming req see
system.mem_ctrls.wrQLenPdf::51                      0                       # What write queue length does an incoming req see
system.mem_ctrls.wrQLenPdf::52                      0                       # What write queue length does an incoming req see
system.mem_ctrls.wrQLenPdf::53                      0                       # What write queue length does an incoming req see
system.mem_ctrls.wrQLenPdf::54                      0                       # What write queue length does an incoming req see
system.mem_ctrls.wrQLenPdf::55                      0                       # What write queue length does an incoming req see
system.mem_ctrls.wrQLenPdf::56                      0                       # What write queue length does an incoming req see
system.mem_ctrls.wrQLenPdf::57                      0                       # What write queue length does an incoming req see
system.mem_ctrls.wrQLenPdf::58                      0                       # What write queue length does an incoming req see
system.mem_ctrls.wrQLenPdf::59                      0                       # What write queue length does an incoming req see
system.mem_ctrls.wrQLenPdf::60                      0                       # What write queue length does an incoming req see
system.mem_ctrls.wrQLenPdf::61                      0                       # What write queue length does an incoming req see
system.mem_ctrls.wrQLenPdf::62                      0                       # What write queue length does an incoming req see
system.mem_ctrls.wrQLenPdf::63                      0                       # What write queue length does an incoming req see
system.mem_ctrls.bytesPerActivate::samples      6026355                       # Bytes accessed per row activation
system.mem_ctrls.bytesPerActivate::mean     86.157096                       # Bytes accessed per row activation
system.mem_ctrls.bytesPerActivate::gmean    72.382372                       # Bytes accessed per row activation
system.mem_ctrls.bytesPerActivate::stdev   108.010335                       # Bytes accessed per row activation
system.mem_ctrls.bytesPerActivate::0-127      5374328     89.18%     89.18% # Bytes accessed per row activation
system.mem_ctrls.bytesPerActivate::128-255       472738      7.84%     97.02% # Bytes accessed per row activation
system.mem_ctrls.bytesPerActivate::256-383        56877      0.94%     97.97% # Bytes accessed per row activation
system.mem_ctrls.bytesPerActivate::384-511        25121      0.42%     98.39% # Bytes accessed per row activation
system.mem_ctrls.bytesPerActivate::512-639        18233      0.30%     98.69% # Bytes accessed per row activation
system.mem_ctrls.bytesPerActivate::640-767        14288      0.24%     98.93% # Bytes accessed per row activation
system.mem_ctrls.bytesPerActivate::768-895         8512      0.14%     99.07% # Bytes accessed per row activation
system.mem_ctrls.bytesPerActivate::896-1023         6968      0.12%     99.18% # Bytes accessed per row activation
system.mem_ctrls.bytesPerActivate::1024-1151        49290      0.82%    100.00% # Bytes accessed per row activation
system.mem_ctrls.bytesPerActivate::total      6026355                       # Bytes accessed per row activation
system.mem_ctrls.rdPerTurnAround::samples        71004                       # Reads before turning the bus around for writes
system.mem_ctrls.rdPerTurnAround::mean      97.607811                       # Reads before turning the bus around for writes
system.mem_ctrls.rdPerTurnAround::gmean     51.087459                       # Reads before turning the bus around for writes
system.mem_ctrls.rdPerTurnAround::stdev    153.002769                       # Reads before turning the bus around for writes
system.mem_ctrls.rdPerTurnAround::0-255         62561     88.11%     88.11% # Reads before turning the bus around for writes
system.mem_ctrls.rdPerTurnAround::256-511         6021      8.48%     96.59% # Reads before turning the bus around for writes
system.mem_ctrls.rdPerTurnAround::512-767         1904      2.68%     99.27% # Reads before turning the bus around for writes
system.mem_ctrls.rdPerTurnAround::768-1023          421      0.59%     99.86% # Reads before turning the bus around for writes
system.mem_ctrls.rdPerTurnAround::1024-1279           88      0.12%     99.99% # Reads before turning the bus around for writes
system.mem_ctrls.rdPerTurnAround::1280-1535            8      0.01%    100.00% # Reads before turning the bus around for writes
system.mem_ctrls.rdPerTurnAround::7424-7679            1      0.00%    100.00% # Reads before turning the bus around for writes
system.mem_ctrls.rdPerTurnAround::total         71004                       # Reads before turning the bus around for writes
system.mem_ctrls.wrPerTurnAround::samples        71004                       # Writes before turning the bus around for reads
system.mem_ctrls.wrPerTurnAround::mean      16.649147                       # Writes before turning the bus around for reads
system.mem_ctrls.wrPerTurnAround::gmean     16.624315                       # Writes before turning the bus around for reads
system.mem_ctrls.wrPerTurnAround::stdev      0.921442                       # Writes before turning the bus around for reads
system.mem_ctrls.wrPerTurnAround::16            46936     66.10%     66.10% # Writes before turning the bus around for reads
system.mem_ctrls.wrPerTurnAround::17             2077      2.93%     69.03% # Writes before turning the bus around for reads
system.mem_ctrls.wrPerTurnAround::18            21958     30.93%     99.95% # Writes before turning the bus around for reads
system.mem_ctrls.wrPerTurnAround::19               33      0.05%    100.00% # Writes before turning the bus around for reads
system.mem_ctrls.wrPerTurnAround::total         71004                       # Writes before turning the bus around for reads
system.mem_ctrls.totQLat                 215742714750                       # Total ticks spent queuing
system.mem_ctrls.totMemAccLat            345690546000                       # Total ticks spent from burst creation until serviced by the DRAM
system.mem_ctrls.totBusLat                34652755000                       # Total ticks spent in databus transfers
system.mem_ctrls.avgQLat                     31129.23                       # Average queueing delay per DRAM burst
system.mem_ctrls.avgBusLat                    5000.00                       # Average bus latency per DRAM burst
system.mem_ctrls.avgMemAccLat                49879.23                       # Average memory access latency per DRAM burst
system.mem_ctrls.avgRdBW                       259.62                       # Average DRAM read bandwidth in MiByte/s
system.mem_ctrls.avgWrBW                        44.28                       # Average achieved write bandwidth in MiByte/s
system.mem_ctrls.avgRdBWSys                    259.94                       # Average system read bandwidth in MiByte/s
system.mem_ctrls.avgWrBWSys                     44.28                       # Average system write bandwidth in MiByte/s
system.mem_ctrls.peakBW                      12800.00                       # Theoretical peak bandwidth in MiByte/s
system.mem_ctrls.busUtil                         2.37                       # Data bus utilization in percentage
system.mem_ctrls.busUtilRead                     2.03                       # Data bus utilization in percentage for reads
system.mem_ctrls.busUtilWrite                    0.35                       # Data bus utilization in percentage for writes
system.mem_ctrls.avgRdQLen                       1.00                       # Average read queue length when enqueuing
system.mem_ctrls.avgWrQLen                      24.89                       # Average write queue length when enqueuing
system.mem_ctrls.readRowHits                  1489540                       # Number of row buffer hits during reads
system.mem_ctrls.writeRowHits                  596812                       # Number of row buffer hits during writes
system.mem_ctrls.readRowHitRate                 21.49                       # Row buffer hit rate for reads
system.mem_ctrls.writeRowHitRate                50.48                       # Row buffer hit rate for writes
system.mem_ctrls.avgGap                     210370.84                       # Average gap between requests
system.mem_ctrls.pageHitRate                    25.72                       # Row buffer hit rate, read and write combined
system.mem_ctrls_0.actEnergy              21354397680                       # Energy for activate commands per rank (pJ)
system.mem_ctrls_0.preEnergy              11350131540                       # Energy for precharge commands per rank (pJ)
system.mem_ctrls_0.readEnergy             24568868520                       # Energy for read commands per rank (pJ)
system.mem_ctrls_0.writeEnergy             3083521860                       # Energy for write commands per rank (pJ)
system.mem_ctrls_0.refreshEnergy         130950281280.000031                       # Energy for refresh commands per rank (pJ)
system.mem_ctrls_0.actBackEnergy         113744015280                       # Energy for active background per rank (pJ)
system.mem_ctrls_0.preBackEnergy           4321815360                       # Energy for precharge background per rank (pJ)
system.mem_ctrls_0.actPowerDownEnergy    496281002250                       # Energy for active power-down per rank (pJ)
system.mem_ctrls_0.prePowerDownEnergy     77357096160                       # Energy for precharge power-down per rank (pJ)
system.mem_ctrls_0.selfRefreshEnergy      46184162700                       # Energy for self refresh per rank (pJ)
system.mem_ctrls_0.totalEnergy           929210828610                       # Total energy per rank (pJ)
system.mem_ctrls_0.averagePower            543.876143                       # Core power per rank (mW)
system.mem_ctrls_0.totalIdleTime         1447764809000                       # Total Idle time Per DRAM Rank
system.mem_ctrls_0.memoryStateTime::IDLE   5245881750                       # Time in different power states
system.mem_ctrls_0.memoryStateTime::REF   55484648000                       # Time in different power states
system.mem_ctrls_0.memoryStateTime::SREF 157982951000                       # Time in different power states
system.mem_ctrls_0.memoryStateTime::PRE_PDN 201450308000                       # Time in different power states
system.mem_ctrls_0.memoryStateTime::ACT  199996585250                       # Time in different power states
system.mem_ctrls_0.memoryStateTime::ACT_PDN 1088336742500                       # Time in different power states
system.mem_ctrls_1.actEnergy              21673777020                       # Energy for activate commands per rank (pJ)
system.mem_ctrls_1.preEnergy              11519885685                       # Energy for precharge commands per rank (pJ)
system.mem_ctrls_1.readEnergy             24915265620                       # Energy for read commands per rank (pJ)
system.mem_ctrls_1.writeEnergy             3087332460                       # Energy for write commands per rank (pJ)
system.mem_ctrls_1.refreshEnergy         130694591040.000031                       # Energy for refresh commands per rank (pJ)
system.mem_ctrls_1.actBackEnergy         113556036690                       # Energy for active background per rank (pJ)
system.mem_ctrls_1.preBackEnergy           4411995360                       # Energy for precharge background per rank (pJ)
system.mem_ctrls_1.actPowerDownEnergy    496362702060                       # Energy for active power-down per rank (pJ)
system.mem_ctrls_1.prePowerDownEnergy     76720534080                       # Energy for precharge power-down per rank (pJ)
system.mem_ctrls_1.selfRefreshEnergy      46461402915                       # Energy for self refresh per rank (pJ)
system.mem_ctrls_1.totalEnergy           929417817120                       # Total energy per rank (pJ)
system.mem_ctrls_1.averagePower            543.997297                       # Core power per rank (mW)
system.mem_ctrls_1.totalIdleTime         1447943160750                       # Total Idle time Per DRAM Rank
system.mem_ctrls_1.memoryStateTime::IDLE   5149278500                       # Time in different power states
system.mem_ctrls_1.memoryStateTime::REF   55375324000                       # Time in different power states
system.mem_ctrls_1.memoryStateTime::SREF 159641477500                       # Time in different power states
system.mem_ctrls_1.memoryStateTime::PRE_PDN 199792073250                       # Time in different power states
system.mem_ctrls_1.memoryStateTime::ACT  200023503750                       # Time in different power states
system.mem_ctrls_1.memoryStateTime::ACT_PDN 1088515459500                       # Time in different power states
system.pwrStateResidencyTicks::UNDEFINED 1708497116500                       # Cumulative time (in ticks) in various power states
system.cpu_voltage_domain.voltage                   1                       # Voltage in Volts
system.cpu_clk_domain.clock                       500                       # Clock period in ticks
system.cpu.dtb.walker.pwrStateResidencyTicks::UNDEFINED 1708497116500                       # Cumulative time (in ticks) in various power states
system.cpu.apic_clk_domain.clock                 8000                       # Clock period in ticks
system.cpu.interrupts.pwrStateResidencyTicks::UNDEFINED 1708497116500                       # Cumulative time (in ticks) in various power states
system.cpu.itb.walker.pwrStateResidencyTicks::UNDEFINED 1708497116500                       # Cumulative time (in ticks) in various power states
system.cpu.workload.num_syscalls                  168                       # Number of system calls
system.cpu.pwrStateResidencyTicks::ON    1708497116500                       # Cumulative time (in ticks) in various power states
system.cpu.numCycles                       3416994233                       # number of cpu cycles simulated
system.cpu.numWorkItemsStarted                      0                       # number of work items this cpu started
system.cpu.numWorkItemsCompleted                    0                       # number of work items this cpu completed
system.cpu.committedInsts                   500000000                       # Number of instructions committed
system.cpu.committedOps                     876313784                       # Number of ops (including micro ops) committed
system.cpu.num_int_alu_accesses             872966681                       # Number of integer alu accesses
system.cpu.num_fp_alu_accesses                2882231                       # Number of float alu accesses
system.cpu.num_func_calls                    11025254                       # number of times a function call or return occured
system.cpu.num_conditional_control_insts     75981009                       # number of instructions that are conditional controls
system.cpu.num_int_insts                    872966681                       # number of integer instructions
system.cpu.num_fp_insts                       2882231                       # number of float instructions
system.cpu.num_int_register_reads          1835046955                       # number of times the integer registers were read
system.cpu.num_int_register_writes          703076420                       # number of times the integer registers were written
system.cpu.num_fp_register_reads              4386063                       # number of times the floating registers were read
system.cpu.num_fp_register_writes             2464405                       # number of times the floating registers were written
system.cpu.num_cc_register_reads            441654669                       # number of times the CC registers were read
system.cpu.num_cc_register_writes           253505516                       # number of times the CC registers were written
system.cpu.num_mem_refs                     293763597                       # number of memory refs
system.cpu.num_load_insts                   221285041                       # Number of load instructions
system.cpu.num_store_insts                   72478556                       # Number of store instructions
system.cpu.num_idle_cycles                          0                       # Number of idle cycles
system.cpu.num_busy_cycles                 3416994233                       # Number of busy cycles
system.cpu.not_idle_fraction                        1                       # Percentage of non-idle cycles
system.cpu.idle_fraction                            0                       # Percentage of idle cycles
system.cpu.Branches                          97901001                       # Number of branches fetched
system.cpu.op_class::No_OpClass                939429      0.11%      0.11% # Class of executed instruction
system.cpu.op_class::IntAlu                 578420257     66.01%     66.11% # Class of executed instruction
system.cpu.op_class::IntMult                   907073      0.10%     66.22% # Class of executed instruction
system.cpu.op_class::IntDiv                        42      0.00%     66.22% # Class of executed instruction
system.cpu.op_class::FloatAdd                 2283386      0.26%     66.48% # Class of executed instruction
system.cpu.op_class::FloatCmp                       0      0.00%     66.48% # Class of executed instruction
system.cpu.op_class::FloatCvt                       0      0.00%     66.48% # Class of executed instruction
system.cpu.op_class::FloatMult                      0      0.00%     66.48% # Class of executed instruction
system.cpu.op_class::FloatDiv                       0      0.00%     66.48% # Class of executed instruction
system.cpu.op_class::FloatSqrt                      0      0.00%     66.48% # Class of executed instruction
system.cpu.op_class::SimdAdd                        0      0.00%     66.48% # Class of executed instruction
system.cpu.op_class::SimdAddAcc                     0      0.00%     66.48% # Class of executed instruction
system.cpu.op_class::SimdAlu                        0      0.00%     66.48% # Class of executed instruction
system.cpu.op_class::SimdCmp                        0      0.00%     66.48% # Class of executed instruction
system.cpu.op_class::SimdCvt                        0      0.00%     66.48% # Class of executed instruction
system.cpu.op_class::SimdMisc                       0      0.00%     66.48% # Class of executed instruction
system.cpu.op_class::SimdMult                       0      0.00%     66.48% # Class of executed instruction
system.cpu.op_class::SimdMultAcc                    0      0.00%     66.48% # Class of executed instruction
system.cpu.op_class::SimdShift                      0      0.00%     66.48% # Class of executed instruction
system.cpu.op_class::SimdShiftAcc                   0      0.00%     66.48% # Class of executed instruction
system.cpu.op_class::SimdSqrt                       0      0.00%     66.48% # Class of executed instruction
system.cpu.op_class::SimdFloatAdd                   0      0.00%     66.48% # Class of executed instruction
system.cpu.op_class::SimdFloatAlu                   0      0.00%     66.48% # Class of executed instruction
system.cpu.op_class::SimdFloatCmp                   0      0.00%     66.48% # Class of executed instruction
system.cpu.op_class::SimdFloatCvt                   0      0.00%     66.48% # Class of executed instruction
system.cpu.op_class::SimdFloatDiv                   0      0.00%     66.48% # Class of executed instruction
system.cpu.op_class::SimdFloatMisc                  0      0.00%     66.48% # Class of executed instruction
system.cpu.op_class::SimdFloatMult                  0      0.00%     66.48% # Class of executed instruction
system.cpu.op_class::SimdFloatMultAcc               0      0.00%     66.48% # Class of executed instruction
system.cpu.op_class::SimdFloatSqrt                  0      0.00%     66.48% # Class of executed instruction
system.cpu.op_class::MemRead                221285041     25.25%     91.73% # Class of executed instruction
system.cpu.op_class::MemWrite                72478556      8.27%    100.00% # Class of executed instruction
system.cpu.op_class::IprAccess                      0      0.00%    100.00% # Class of executed instruction
system.cpu.op_class::InstPrefetch                   0      0.00%    100.00% # Class of executed instruction
system.cpu.op_class::total                  876313784                       # Class of executed instruction
system.cpu.dcache.tags.pwrStateResidencyTicks::UNDEFINED 1708497116500                       # Cumulative time (in ticks) in various power states
system.cpu.dcache.tags.replacements           9185263                       # number of replacements
system.cpu.dcache.tags.tagsinuse          2047.353122                       # Cycle average of tags in use
system.cpu.dcache.tags.total_refs           284590414                       # Total number of references to valid blocks.
system.cpu.dcache.tags.sampled_refs           9187311                       # Sample count of references to valid blocks.
system.cpu.dcache.tags.avg_refs             30.976465                       # Average number of references to valid blocks.
system.cpu.dcache.tags.warmup_cycle        1283012500                       # Cycle when the warmup percentage was hit.
system.cpu.dcache.tags.occ_blocks::cpu.data  2047.353122                       # Average occupied blocks per requestor
system.cpu.dcache.tags.occ_percent::cpu.data     0.999684                       # Average percentage of cache occupancy
system.cpu.dcache.tags.occ_percent::total     0.999684                       # Average percentage of cache occupancy
system.cpu.dcache.tags.occ_task_id_blocks::1024         2048                       # Occupied blocks per task id
system.cpu.dcache.tags.age_task_id_blocks_1024::1          594                       # Occupied blocks per task id
system.cpu.dcache.tags.age_task_id_blocks_1024::2         1306                       # Occupied blocks per task id
system.cpu.dcache.tags.age_task_id_blocks_1024::3           91                       # Occupied blocks per task id
system.cpu.dcache.tags.age_task_id_blocks_1024::4           57                       # Occupied blocks per task id
system.cpu.dcache.tags.occ_task_id_percent::1024            1                       # Percentage of cache occupancy per task id
system.cpu.dcache.tags.tag_accesses        2359409111                       # Number of tag accesses
system.cpu.dcache.tags.data_accesses       2359409111                       # Number of data accesses
system.cpu.dcache.pwrStateResidencyTicks::UNDEFINED 1708497116500                       # Cumulative time (in ticks) in various power states
system.cpu.dcache.ReadReq_hits::cpu.data    212363859                       # number of ReadReq hits
system.cpu.dcache.ReadReq_hits::total       212363859                       # number of ReadReq hits
system.cpu.dcache.WriteReq_hits::cpu.data     72226555                       # number of WriteReq hits
system.cpu.dcache.WriteReq_hits::total       72226555                       # number of WriteReq hits
system.cpu.dcache.demand_hits::cpu.data     284590414                       # number of demand (read+write) hits
system.cpu.dcache.demand_hits::total        284590414                       # number of demand (read+write) hits
system.cpu.dcache.overall_hits::cpu.data    284590414                       # number of overall hits
system.cpu.dcache.overall_hits::total       284590414                       # number of overall hits
system.cpu.dcache.ReadReq_misses::cpu.data      8935309                       # number of ReadReq misses
system.cpu.dcache.ReadReq_misses::total       8935309                       # number of ReadReq misses
system.cpu.dcache.WriteReq_misses::cpu.data       252002                       # number of WriteReq misses
system.cpu.dcache.WriteReq_misses::total       252002                       # number of WriteReq misses
system.cpu.dcache.demand_misses::cpu.data      9187311                       # number of demand (read+write) misses
system.cpu.dcache.demand_misses::total        9187311                       # number of demand (read+write) misses
system.cpu.dcache.overall_misses::cpu.data      9187311                       # number of overall misses
system.cpu.dcache.overall_misses::total       9187311                       # number of overall misses
system.cpu.dcache.ReadReq_miss_latency::cpu.data 724756517500                       # number of ReadReq miss cycles
system.cpu.dcache.ReadReq_miss_latency::total 724756517500                       # number of ReadReq miss cycles
system.cpu.dcache.WriteReq_miss_latency::cpu.data  21780227500                       # number of WriteReq miss cycles
system.cpu.dcache.WriteReq_miss_latency::total  21780227500                       # number of WriteReq miss cycles
system.cpu.dcache.demand_miss_latency::cpu.data 746536745000                       # number of demand (read+write) miss cycles
system.cpu.dcache.demand_miss_latency::total 746536745000                       # number of demand (read+write) miss cycles
system.cpu.dcache.overall_miss_latency::cpu.data 746536745000                       # number of overall miss cycles
system.cpu.dcache.overall_miss_latency::total 746536745000                       # number of overall miss cycles
system.cpu.dcache.ReadReq_accesses::cpu.data    221299168                       # number of ReadReq accesses(hits+misses)
system.cpu.dcache.ReadReq_accesses::total    221299168                       # number of ReadReq accesses(hits+misses)
system.cpu.dcache.WriteReq_accesses::cpu.data     72478557                       # number of WriteReq accesses(hits+misses)
system.cpu.dcache.WriteReq_accesses::total     72478557                       # number of WriteReq accesses(hits+misses)
system.cpu.dcache.demand_accesses::cpu.data    293777725                       # number of demand (read+write) accesses
system.cpu.dcache.demand_accesses::total    293777725                       # number of demand (read+write) accesses
system.cpu.dcache.overall_accesses::cpu.data    293777725                       # number of overall (read+write) accesses
system.cpu.dcache.overall_accesses::total    293777725                       # number of overall (read+write) accesses
system.cpu.dcache.ReadReq_miss_rate::cpu.data     0.040377                       # miss rate for ReadReq accesses
system.cpu.dcache.ReadReq_miss_rate::total     0.040377                       # miss rate for ReadReq accesses
system.cpu.dcache.WriteReq_miss_rate::cpu.data     0.003477                       # miss rate for WriteReq accesses
system.cpu.dcache.WriteReq_miss_rate::total     0.003477                       # miss rate for WriteReq accesses
system.cpu.dcache.demand_miss_rate::cpu.data     0.031273                       # miss rate for demand accesses
system.cpu.dcache.demand_miss_rate::total     0.031273                       # miss rate for demand accesses
system.cpu.dcache.overall_miss_rate::cpu.data     0.031273                       # miss rate for overall accesses
system.cpu.dcache.overall_miss_rate::total     0.031273                       # miss rate for overall accesses
system.cpu.dcache.ReadReq_avg_miss_latency::cpu.data 81111.522556                       # average ReadReq miss latency
system.cpu.dcache.ReadReq_avg_miss_latency::total 81111.522556                       # average ReadReq miss latency
system.cpu.dcache.WriteReq_avg_miss_latency::cpu.data 86428.788264                       # average WriteReq miss latency
system.cpu.dcache.WriteReq_avg_miss_latency::total 86428.788264                       # average WriteReq miss latency
system.cpu.dcache.demand_avg_miss_latency::cpu.data 81257.371716                       # average overall miss latency
system.cpu.dcache.demand_avg_miss_latency::total 81257.371716                       # average overall miss latency
system.cpu.dcache.overall_avg_miss_latency::cpu.data 81257.371716                       # average overall miss latency
system.cpu.dcache.overall_avg_miss_latency::total 81257.371716                       # average overall miss latency
system.cpu.dcache.blocked_cycles::no_mshrs            0                       # number of cycles access was blocked
system.cpu.dcache.blocked_cycles::no_targets            0                       # number of cycles access was blocked
system.cpu.dcache.blocked::no_mshrs                 0                       # number of cycles access was blocked
system.cpu.dcache.blocked::no_targets               0                       # number of cycles access was blocked
system.cpu.dcache.avg_blocked_cycles::no_mshrs          nan                       # average number of cycles each access was blocked
system.cpu.dcache.avg_blocked_cycles::no_targets          nan                       # average number of cycles each access was blocked
system.cpu.dcache.writebacks::writebacks      1684753                       # number of writebacks
system.cpu.dcache.writebacks::total           1684753                       # number of writebacks
system.cpu.dcache.ReadReq_mshr_misses::cpu.data      8935309                       # number of ReadReq MSHR misses
system.cpu.dcache.ReadReq_mshr_misses::total      8935309                       # number of ReadReq MSHR misses
system.cpu.dcache.WriteReq_mshr_misses::cpu.data       252002                       # number of WriteReq MSHR misses
system.cpu.dcache.WriteReq_mshr_misses::total       252002                       # number of WriteReq MSHR misses
system.cpu.dcache.demand_mshr_misses::cpu.data      9187311                       # number of demand (read+write) MSHR misses
system.cpu.dcache.demand_mshr_misses::total      9187311                       # number of demand (read+write) MSHR misses
system.cpu.dcache.overall_mshr_misses::cpu.data      9187311                       # number of overall MSHR misses
system.cpu.dcache.overall_mshr_misses::total      9187311                       # number of overall MSHR misses
system.cpu.dcache.ReadReq_mshr_miss_latency::cpu.data 715821208500                       # number of ReadReq MSHR miss cycles
system.cpu.dcache.ReadReq_mshr_miss_latency::total 715821208500                       # number of ReadReq MSHR miss cycles
system.cpu.dcache.WriteReq_mshr_miss_latency::cpu.data  21528225500                       # number of WriteReq MSHR miss cycles
system.cpu.dcache.WriteReq_mshr_miss_latency::total  21528225500                       # number of WriteReq MSHR miss cycles
system.cpu.dcache.demand_mshr_miss_latency::cpu.data 737349434000                       # number of demand (read+write) MSHR miss cycles
system.cpu.dcache.demand_mshr_miss_latency::total 737349434000                       # number of demand (read+write) MSHR miss cycles
system.cpu.dcache.overall_mshr_miss_latency::cpu.data 737349434000                       # number of overall MSHR miss cycles
system.cpu.dcache.overall_mshr_miss_latency::total 737349434000                       # number of overall MSHR miss cycles
system.cpu.dcache.ReadReq_mshr_miss_rate::cpu.data     0.040377                       # mshr miss rate for ReadReq accesses
system.cpu.dcache.ReadReq_mshr_miss_rate::total     0.040377                       # mshr miss rate for ReadReq accesses
system.cpu.dcache.WriteReq_mshr_miss_rate::cpu.data     0.003477                       # mshr miss rate for WriteReq accesses
system.cpu.dcache.WriteReq_mshr_miss_rate::total     0.003477                       # mshr miss rate for WriteReq accesses
system.cpu.dcache.demand_mshr_miss_rate::cpu.data     0.031273                       # mshr miss rate for demand accesses
system.cpu.dcache.demand_mshr_miss_rate::total     0.031273                       # mshr miss rate for demand accesses
system.cpu.dcache.overall_mshr_miss_rate::cpu.data     0.031273                       # mshr miss rate for overall accesses
system.cpu.dcache.overall_mshr_miss_rate::total     0.031273                       # mshr miss rate for overall accesses
system.cpu.dcache.ReadReq_avg_mshr_miss_latency::cpu.data 80111.522556                       # average ReadReq mshr miss latency
system.cpu.dcache.ReadReq_avg_mshr_miss_latency::total 80111.522556                       # average ReadReq mshr miss latency
system.cpu.dcache.WriteReq_avg_mshr_miss_latency::cpu.data 85428.788264                       # average WriteReq mshr miss latency
system.cpu.dcache.WriteReq_avg_mshr_miss_latency::total 85428.788264                       # average WriteReq mshr miss latency
system.cpu.dcache.demand_avg_mshr_miss_latency::cpu.data 80257.371716                       # average overall mshr miss latency
system.cpu.dcache.demand_avg_mshr_miss_latency::total 80257.371716                       # average overall mshr miss latency
system.cpu.dcache.overall_avg_mshr_miss_latency::cpu.data 80257.371716                       # average overall mshr miss latency
system.cpu.dcache.overall_avg_mshr_miss_latency::total 80257.371716                       # average overall mshr miss latency
system.cpu.dtb_walker_cache.tags.pwrStateResidencyTicks::UNDEFINED 1708497116500                       # Cumulative time (in ticks) in various power states
system.cpu.dtb_walker_cache.tags.replacements            0                       # number of replacements
system.cpu.dtb_walker_cache.tags.tagsinuse            0                       # Cycle average of tags in use
system.cpu.dtb_walker_cache.tags.total_refs            0                       # Total number of references to valid blocks.
system.cpu.dtb_walker_cache.tags.sampled_refs            0                       # Sample count of references to valid blocks.
system.cpu.dtb_walker_cache.tags.avg_refs          nan                       # Average number of references to valid blocks.
system.cpu.dtb_walker_cache.tags.warmup_cycle            0                       # Cycle when the warmup percentage was hit.
system.cpu.dtb_walker_cache.tags.tag_accesses            0                       # Number of tag accesses
system.cpu.dtb_walker_cache.tags.data_accesses            0                       # Number of data accesses
system.cpu.dtb_walker_cache.pwrStateResidencyTicks::UNDEFINED 1708497116500                       # Cumulative time (in ticks) in various power states
system.cpu.dtb_walker_cache.blocked_cycles::no_mshrs            0                       # number of cycles access was blocked
system.cpu.dtb_walker_cache.blocked_cycles::no_targets            0                       # number of cycles access was blocked
system.cpu.dtb_walker_cache.blocked::no_mshrs            0                       # number of cycles access was blocked
system.cpu.dtb_walker_cache.blocked::no_targets            0                       # number of cycles access was blocked
system.cpu.dtb_walker_cache.avg_blocked_cycles::no_mshrs          nan                       # average number of cycles each access was blocked
system.cpu.dtb_walker_cache.avg_blocked_cycles::no_targets          nan                       # average number of cycles each access was blocked
system.cpu.icache.tags.pwrStateResidencyTicks::UNDEFINED 1708497116500                       # Cumulative time (in ticks) in various power states
system.cpu.icache.tags.replacements                 0                       # number of replacements
system.cpu.icache.tags.tagsinuse           637.627344                       # Cycle average of tags in use
system.cpu.icache.tags.total_refs           677317268                       # Total number of references to valid blocks.
system.cpu.icache.tags.sampled_refs               675                       # Sample count of references to valid blocks.
system.cpu.icache.tags.avg_refs          1003432.989630                       # Average number of references to valid blocks.
system.cpu.icache.tags.warmup_cycle                 0                       # Cycle when the warmup percentage was hit.
system.cpu.icache.tags.occ_blocks::cpu.inst   637.627344                       # Average occupied blocks per requestor
system.cpu.icache.tags.occ_percent::cpu.inst     0.311341                       # Average percentage of cache occupancy
system.cpu.icache.tags.occ_percent::total     0.311341                       # Average percentage of cache occupancy
system.cpu.icache.tags.occ_task_id_blocks::1024          675                       # Occupied blocks per task id
system.cpu.icache.tags.age_task_id_blocks_1024::4          675                       # Occupied blocks per task id
system.cpu.icache.tags.occ_task_id_percent::1024     0.329590                       # Percentage of cache occupancy per task id
system.cpu.icache.tags.tag_accesses        5418544219                       # Number of tag accesses
system.cpu.icache.tags.data_accesses       5418544219                       # Number of data accesses
system.cpu.icache.pwrStateResidencyTicks::UNDEFINED 1708497116500                       # Cumulative time (in ticks) in various power states
system.cpu.icache.ReadReq_hits::cpu.inst    677317268                       # number of ReadReq hits
system.cpu.icache.ReadReq_hits::total       677317268                       # number of ReadReq hits
system.cpu.icache.demand_hits::cpu.inst     677317268                       # number of demand (read+write) hits
system.cpu.icache.demand_hits::total        677317268                       # number of demand (read+write) hits
system.cpu.icache.overall_hits::cpu.inst    677317268                       # number of overall hits
system.cpu.icache.overall_hits::total       677317268                       # number of overall hits
system.cpu.icache.ReadReq_misses::cpu.inst          675                       # number of ReadReq misses
system.cpu.icache.ReadReq_misses::total           675                       # number of ReadReq misses
system.cpu.icache.demand_misses::cpu.inst          675                       # number of demand (read+write) misses
system.cpu.icache.demand_misses::total            675                       # number of demand (read+write) misses
system.cpu.icache.overall_misses::cpu.inst          675                       # number of overall misses
system.cpu.icache.overall_misses::total           675                       # number of overall misses
system.cpu.icache.ReadReq_miss_latency::cpu.inst     59756000                       # number of ReadReq miss cycles
system.cpu.icache.ReadReq_miss_latency::total     59756000                       # number of ReadReq miss cycles
system.cpu.icache.demand_miss_latency::cpu.inst     59756000                       # number of demand (read+write) miss cycles
system.cpu.icache.demand_miss_latency::total     59756000                       # number of demand (read+write) miss cycles
system.cpu.icache.overall_miss_latency::cpu.inst     59756000                       # number of overall miss cycles
system.cpu.icache.overall_miss_latency::total     59756000                       # number of overall miss cycles
system.cpu.icache.ReadReq_accesses::cpu.inst    677317943                       # number of ReadReq accesses(hits+misses)
system.cpu.icache.ReadReq_accesses::total    677317943                       # number of ReadReq accesses(hits+misses)
system.cpu.icache.demand_accesses::cpu.inst    677317943                       # number of demand (read+write) accesses
system.cpu.icache.demand_accesses::total    677317943                       # number of demand (read+write) accesses
system.cpu.icache.overall_accesses::cpu.inst    677317943                       # number of overall (read+write) accesses
system.cpu.icache.overall_accesses::total    677317943                       # number of overall (read+write) accesses
system.cpu.icache.ReadReq_miss_rate::cpu.inst     0.000001                       # miss rate for ReadReq accesses
system.cpu.icache.ReadReq_miss_rate::total     0.000001                       # miss rate for ReadReq accesses
system.cpu.icache.demand_miss_rate::cpu.inst     0.000001                       # miss rate for demand accesses
system.cpu.icache.demand_miss_rate::total     0.000001                       # miss rate for demand accesses
system.cpu.icache.overall_miss_rate::cpu.inst     0.000001                       # miss rate for overall accesses
system.cpu.icache.overall_miss_rate::total     0.000001                       # miss rate for overall accesses
system.cpu.icache.ReadReq_avg_miss_latency::cpu.inst 88527.407407                       # average ReadReq miss latency
system.cpu.icache.ReadReq_avg_miss_latency::total 88527.407407                       # average ReadReq miss latency
system.cpu.icache.demand_avg_miss_latency::cpu.inst 88527.407407                       # average overall miss latency
system.cpu.icache.demand_avg_miss_latency::total 88527.407407                       # average overall miss latency
system.cpu.icache.overall_avg_miss_latency::cpu.inst 88527.407407                       # average overall miss latency
system.cpu.icache.overall_avg_miss_latency::total 88527.407407                       # average overall miss latency
system.cpu.icache.blocked_cycles::no_mshrs            0                       # number of cycles access was blocked
system.cpu.icache.blocked_cycles::no_targets            0                       # number of cycles access was blocked
system.cpu.icache.blocked::no_mshrs                 0                       # number of cycles access was blocked
system.cpu.icache.blocked::no_targets               0                       # number of cycles access was blocked
system.cpu.icache.avg_blocked_cycles::no_mshrs          nan                       # average number of cycles each access was blocked
system.cpu.icache.avg_blocked_cycles::no_targets          nan                       # average number of cycles each access was blocked
system.cpu.icache.ReadReq_mshr_misses::cpu.inst          675                       # number of ReadReq MSHR misses
system.cpu.icache.ReadReq_mshr_misses::total          675                       # number of ReadReq MSHR misses
system.cpu.icache.demand_mshr_misses::cpu.inst          675                       # number of demand (read+write) MSHR misses
system.cpu.icache.demand_mshr_misses::total          675                       # number of demand (read+write) MSHR misses
system.cpu.icache.overall_mshr_misses::cpu.inst          675                       # number of overall MSHR misses
system.cpu.icache.overall_mshr_misses::total          675                       # number of overall MSHR misses
system.cpu.icache.ReadReq_mshr_miss_latency::cpu.inst     59081000                       # number of ReadReq MSHR miss cycles
system.cpu.icache.ReadReq_mshr_miss_latency::total     59081000                       # number of ReadReq MSHR miss cycles
system.cpu.icache.demand_mshr_miss_latency::cpu.inst     59081000                       # number of demand (read+write) MSHR miss cycles
system.cpu.icache.demand_mshr_miss_latency::total     59081000                       # number of demand (read+write) MSHR miss cycles
system.cpu.icache.overall_mshr_miss_latency::cpu.inst     59081000                       # number of overall MSHR miss cycles
system.cpu.icache.overall_mshr_miss_latency::total     59081000                       # number of overall MSHR miss cycles
system.cpu.icache.ReadReq_mshr_miss_rate::cpu.inst     0.000001                       # mshr miss rate for ReadReq accesses
system.cpu.icache.ReadReq_mshr_miss_rate::total     0.000001                       # mshr miss rate for ReadReq accesses
system.cpu.icache.demand_mshr_miss_rate::cpu.inst     0.000001                       # mshr miss rate for demand accesses
system.cpu.icache.demand_mshr_miss_rate::total     0.000001                       # mshr miss rate for demand accesses
system.cpu.icache.overall_mshr_miss_rate::cpu.inst     0.000001                       # mshr miss rate for overall accesses
system.cpu.icache.overall_mshr_miss_rate::total     0.000001                       # mshr miss rate for overall accesses
system.cpu.icache.ReadReq_avg_mshr_miss_latency::cpu.inst 87527.407407                       # average ReadReq mshr miss latency
system.cpu.icache.ReadReq_avg_mshr_miss_latency::total 87527.407407                       # average ReadReq mshr miss latency
system.cpu.icache.demand_avg_mshr_miss_latency::cpu.inst 87527.407407                       # average overall mshr miss latency
system.cpu.icache.demand_avg_mshr_miss_latency::total 87527.407407                       # average overall mshr miss latency
system.cpu.icache.overall_avg_mshr_miss_latency::cpu.inst 87527.407407                       # average overall mshr miss latency
system.cpu.icache.overall_avg_mshr_miss_latency::total 87527.407407                       # average overall mshr miss latency
system.cpu.itb_walker_cache.tags.pwrStateResidencyTicks::UNDEFINED 1708497116500                       # Cumulative time (in ticks) in various power states
system.cpu.itb_walker_cache.tags.replacements            0                       # number of replacements
system.cpu.itb_walker_cache.tags.tagsinuse            0                       # Cycle average of tags in use
system.cpu.itb_walker_cache.tags.total_refs            0                       # Total number of references to valid blocks.
system.cpu.itb_walker_cache.tags.sampled_refs            0                       # Sample count of references to valid blocks.
system.cpu.itb_walker_cache.tags.avg_refs          nan                       # Average number of references to valid blocks.
system.cpu.itb_walker_cache.tags.warmup_cycle            0                       # Cycle when the warmup percentage was hit.
system.cpu.itb_walker_cache.tags.tag_accesses            0                       # Number of tag accesses
system.cpu.itb_walker_cache.tags.data_accesses            0                       # Number of data accesses
system.cpu.itb_walker_cache.pwrStateResidencyTicks::UNDEFINED 1708497116500                       # Cumulative time (in ticks) in various power states
system.cpu.itb_walker_cache.blocked_cycles::no_mshrs            0                       # number of cycles access was blocked
system.cpu.itb_walker_cache.blocked_cycles::no_targets            0                       # number of cycles access was blocked
system.cpu.itb_walker_cache.blocked::no_mshrs            0                       # number of cycles access was blocked
system.cpu.itb_walker_cache.blocked::no_targets            0                       # number of cycles access was blocked
system.cpu.itb_walker_cache.avg_blocked_cycles::no_mshrs          nan                       # average number of cycles each access was blocked
system.cpu.itb_walker_cache.avg_blocked_cycles::no_targets          nan                       # average number of cycles each access was blocked
system.l2.tags.pwrStateResidencyTicks::UNDEFINED 1708497116500                       # Cumulative time (in ticks) in various power states
system.l2.tags.replacements                   6977818                       # number of replacements
system.l2.tags.tagsinuse                  8182.306421                       # Cycle average of tags in use
system.l2.tags.total_refs                    11235161                       # Total number of references to valid blocks.
system.l2.tags.sampled_refs                   6986010                       # Sample count of references to valid blocks.
system.l2.tags.avg_refs                      1.608237                       # Average number of references to valid blocks.
system.l2.tags.warmup_cycle                4936698000                       # Cycle when the warmup percentage was hit.
system.l2.tags.occ_blocks::writebacks       53.559935                       # Average occupied blocks per requestor
system.l2.tags.occ_blocks::cpu.inst          1.344128                       # Average occupied blocks per requestor
system.l2.tags.occ_blocks::cpu.data       8127.402358                       # Average occupied blocks per requestor
system.l2.tags.occ_percent::writebacks       0.006538                       # Average percentage of cache occupancy
system.l2.tags.occ_percent::cpu.inst         0.000164                       # Average percentage of cache occupancy
system.l2.tags.occ_percent::cpu.data         0.992115                       # Average percentage of cache occupancy
system.l2.tags.occ_percent::total            0.998817                       # Average percentage of cache occupancy
system.l2.tags.occ_task_id_blocks::1024          8192                       # Occupied blocks per task id
system.l2.tags.age_task_id_blocks_1024::1          424                       # Occupied blocks per task id
system.l2.tags.age_task_id_blocks_1024::2         3655                       # Occupied blocks per task id
system.l2.tags.age_task_id_blocks_1024::3         3572                       # Occupied blocks per task id
system.l2.tags.age_task_id_blocks_1024::4          541                       # Occupied blocks per task id
system.l2.tags.occ_task_id_percent::1024            1                       # Percentage of cache occupancy per task id
system.l2.tags.tag_accesses                 153971994                       # Number of tag accesses
system.l2.tags.data_accesses                153971994                       # Number of data accesses
system.l2.pwrStateResidencyTicks::UNDEFINED 1708497116500                       # Cumulative time (in ticks) in various power states
system.l2.WritebackDirty_hits::writebacks      1684753                       # number of WritebackDirty hits
system.l2.WritebackDirty_hits::total          1684753                       # number of WritebackDirty hits
system.l2.ReadExReq_hits::cpu.data              29972                       # number of ReadExReq hits
system.l2.ReadExReq_hits::total                 29972                       # number of ReadExReq hits
system.l2.ReadCleanReq_hits::cpu.inst               1                       # number of ReadCleanReq hits
system.l2.ReadCleanReq_hits::total                  1                       # number of ReadCleanReq hits
system.l2.ReadSharedReq_hits::cpu.data        2218907                       # number of ReadSharedReq hits
system.l2.ReadSharedReq_hits::total           2218907                       # number of ReadSharedReq hits
system.l2.demand_hits::cpu.inst                     1                       # number of demand (read+write) hits
system.l2.demand_hits::cpu.data               2248879                       # number of demand (read+write) hits
system.l2.demand_hits::total                  2248880                       # number of demand (read+write) hits
system.l2.overall_hits::cpu.inst                    1                       # number of overall hits
system.l2.overall_hits::cpu.data              2248879                       # number of overall hits
system.l2.overall_hits::total                 2248880                       # number of overall hits
system.l2.ReadExReq_misses::cpu.data           222030                       # number of ReadExReq misses
system.l2.ReadExReq_misses::total              222030                       # number of ReadExReq misses
system.l2.ReadCleanReq_misses::cpu.inst           674                       # number of ReadCleanReq misses
system.l2.ReadCleanReq_misses::total              674                       # number of ReadCleanReq misses
system.l2.ReadSharedReq_misses::cpu.data      6716402                       # number of ReadSharedReq misses
system.l2.ReadSharedReq_misses::total         6716402                       # number of ReadSharedReq misses
system.l2.demand_misses::cpu.inst                 674                       # number of demand (read+write) misses
system.l2.demand_misses::cpu.data             6938432                       # number of demand (read+write) misses
system.l2.demand_misses::total                6939106                       # number of demand (read+write) misses
system.l2.overall_misses::cpu.inst                674                       # number of overall misses
system.l2.overall_misses::cpu.data            6938432                       # number of overall misses
system.l2.overall_misses::total               6939106                       # number of overall misses
system.l2.ReadExReq_miss_latency::cpu.data  20835516000                       # number of ReadExReq miss cycles
system.l2.ReadExReq_miss_latency::total   20835516000                       # number of ReadExReq miss cycles
system.l2.ReadCleanReq_miss_latency::cpu.inst     58056000                       # number of ReadCleanReq miss cycles
system.l2.ReadCleanReq_miss_latency::total     58056000                       # number of ReadCleanReq miss cycles
system.l2.ReadSharedReq_miss_latency::cpu.data 679119721500                       # number of ReadSharedReq miss cycles
system.l2.ReadSharedReq_miss_latency::total 679119721500                       # number of ReadSharedReq miss cycles
system.l2.demand_miss_latency::cpu.inst      58056000                       # number of demand (read+write) miss cycles
system.l2.demand_miss_latency::cpu.data  699955237500                       # number of demand (read+write) miss cycles
system.l2.demand_miss_latency::total     700013293500                       # number of demand (read+write) miss cycles
system.l2.overall_miss_latency::cpu.inst     58056000                       # number of overall miss cycles
system.l2.overall_miss_latency::cpu.data 699955237500                       # number of overall miss cycles
system.l2.overall_miss_latency::total    700013293500                       # number of overall miss cycles
system.l2.WritebackDirty_accesses::writebacks      1684753                       # number of WritebackDirty accesses(hits+misses)
system.l2.WritebackDirty_accesses::total      1684753                       # number of WritebackDirty accesses(hits+misses)
system.l2.ReadExReq_accesses::cpu.data         252002                       # number of ReadExReq accesses(hits+misses)
system.l2.ReadExReq_accesses::total            252002                       # number of ReadExReq accesses(hits+misses)
system.l2.ReadCleanReq_accesses::cpu.inst          675                       # number of ReadCleanReq accesses(hits+misses)
system.l2.ReadCleanReq_accesses::total            675                       # number of ReadCleanReq accesses(hits+misses)
system.l2.ReadSharedReq_accesses::cpu.data      8935309                       # number of ReadSharedReq accesses(hits+misses)
system.l2.ReadSharedReq_accesses::total       8935309                       # number of ReadSharedReq accesses(hits+misses)
system.l2.demand_accesses::cpu.inst               675                       # number of demand (read+write) accesses
system.l2.demand_accesses::cpu.data           9187311                       # number of demand (read+write) accesses
system.l2.demand_accesses::total              9187986                       # number of demand (read+write) accesses
system.l2.overall_accesses::cpu.inst              675                       # number of overall (read+write) accesses
system.l2.overall_accesses::cpu.data          9187311                       # number of overall (read+write) accesses
system.l2.overall_accesses::total             9187986                       # number of overall (read+write) accesses
system.l2.ReadExReq_miss_rate::cpu.data      0.881064                       # miss rate for ReadExReq accesses
system.l2.ReadExReq_miss_rate::total         0.881064                       # miss rate for ReadExReq accesses
system.l2.ReadCleanReq_miss_rate::cpu.inst     0.998519                       # miss rate for ReadCleanReq accesses
system.l2.ReadCleanReq_miss_rate::total      0.998519                       # miss rate for ReadCleanReq accesses
system.l2.ReadSharedReq_miss_rate::cpu.data     0.751670                       # miss rate for ReadSharedReq accesses
system.l2.ReadSharedReq_miss_rate::total     0.751670                       # miss rate for ReadSharedReq accesses
system.l2.demand_miss_rate::cpu.inst         0.998519                       # miss rate for demand accesses
system.l2.demand_miss_rate::cpu.data         0.755219                       # miss rate for demand accesses
system.l2.demand_miss_rate::total            0.755237                       # miss rate for demand accesses
system.l2.overall_miss_rate::cpu.inst        0.998519                       # miss rate for overall accesses
system.l2.overall_miss_rate::cpu.data        0.755219                       # miss rate for overall accesses
system.l2.overall_miss_rate::total           0.755237                       # miss rate for overall accesses
system.l2.ReadExReq_avg_miss_latency::cpu.data 93840.994460                       # average ReadExReq miss latency
system.l2.ReadExReq_avg_miss_latency::total 93840.994460                       # average ReadExReq miss latency
system.l2.ReadCleanReq_avg_miss_latency::cpu.inst 86136.498516                       # average ReadCleanReq miss latency
system.l2.ReadCleanReq_avg_miss_latency::total 86136.498516                       # average ReadCleanReq miss latency
system.l2.ReadSharedReq_avg_miss_latency::cpu.data 101113.620284                       # average ReadSharedReq miss latency
system.l2.ReadSharedReq_avg_miss_latency::total 101113.620284                       # average ReadSharedReq miss latency
system.l2.demand_avg_miss_latency::cpu.inst 86136.498516                       # average overall miss latency
system.l2.demand_avg_miss_latency::cpu.data 100880.896073                       # average overall miss latency
system.l2.demand_avg_miss_latency::total 100879.463940                       # average overall miss latency
system.l2.overall_avg_miss_latency::cpu.inst 86136.498516                       # average overall miss latency
system.l2.overall_avg_miss_latency::cpu.data 100880.896073                       # average overall miss latency
system.l2.overall_avg_miss_latency::total 100879.463940                       # average overall miss latency
system.l2.blocked_cycles::no_mshrs                  0                       # number of cycles access was blocked
system.l2.blocked_cycles::no_targets                0                       # number of cycles access was blocked
system.l2.blocked::no_mshrs                         0                       # number of cycles access was blocked
system.l2.blocked::no_targets                       0                       # number of cycles access was blocked
system.l2.avg_blocked_cycles::no_mshrs            nan                       # average number of cycles each access was blocked
system.l2.avg_blocked_cycles::no_targets          nan                       # average number of cycles each access was blocked
system.l2.writebacks::writebacks              1182172                       # number of writebacks
system.l2.writebacks::total                   1182172                       # number of writebacks
system.l2.CleanEvict_mshr_misses::writebacks       152077                       # number of CleanEvict MSHR misses
system.l2.CleanEvict_mshr_misses::total        152077                       # number of CleanEvict MSHR misses
system.l2.ReadExReq_mshr_misses::cpu.data       222030                       # number of ReadExReq MSHR misses
system.l2.ReadExReq_mshr_misses::total         222030                       # number of ReadExReq MSHR misses
system.l2.ReadCleanReq_mshr_misses::cpu.inst          674                       # number of ReadCleanReq MSHR misses
system.l2.ReadCleanReq_mshr_misses::total          674                       # number of ReadCleanReq MSHR misses
system.l2.ReadSharedReq_mshr_misses::cpu.data      6716402                       # number of ReadSharedReq MSHR misses
system.l2.ReadSharedReq_mshr_misses::total      6716402                       # number of ReadSharedReq MSHR misses
system.l2.demand_mshr_misses::cpu.inst            674                       # number of demand (read+write) MSHR misses
system.l2.demand_mshr_misses::cpu.data        6938432                       # number of demand (read+write) MSHR misses
system.l2.demand_mshr_misses::total           6939106                       # number of demand (read+write) MSHR misses
system.l2.overall_mshr_misses::cpu.inst           674                       # number of overall MSHR misses
system.l2.overall_mshr_misses::cpu.data       6938432                       # number of overall MSHR misses
system.l2.overall_mshr_misses::total          6939106                       # number of overall MSHR misses
system.l2.ReadExReq_mshr_miss_latency::cpu.data  18615216000                       # number of ReadExReq MSHR miss cycles
system.l2.ReadExReq_mshr_miss_latency::total  18615216000                       # number of ReadExReq MSHR miss cycles
system.l2.ReadCleanReq_mshr_miss_latency::cpu.inst     51316000                       # number of ReadCleanReq MSHR miss cycles
system.l2.ReadCleanReq_mshr_miss_latency::total     51316000                       # number of ReadCleanReq MSHR miss cycles
system.l2.ReadSharedReq_mshr_miss_latency::cpu.data 611955701500                       # number of ReadSharedReq MSHR miss cycles
system.l2.ReadSharedReq_mshr_miss_latency::total 611955701500                       # number of ReadSharedReq MSHR miss cycles
system.l2.demand_mshr_miss_latency::cpu.inst     51316000                       # number of demand (read+write) MSHR miss cycles
system.l2.demand_mshr_miss_latency::cpu.data 630570917500                       # number of demand (read+write) MSHR miss cycles
system.l2.demand_mshr_miss_latency::total 630622233500                       # number of demand (read+write) MSHR miss cycles
system.l2.overall_mshr_miss_latency::cpu.inst     51316000                       # number of overall MSHR miss cycles
system.l2.overall_mshr_miss_latency::cpu.data 630570917500                       # number of overall MSHR miss cycles
system.l2.overall_mshr_miss_latency::total 630622233500                       # number of overall MSHR miss cycles
system.l2.CleanEvict_mshr_miss_rate::writebacks          inf                       # mshr miss rate for CleanEvict accesses
system.l2.CleanEvict_mshr_miss_rate::total          inf                       # mshr miss rate for CleanEvict accesses
system.l2.ReadExReq_mshr_miss_rate::cpu.data     0.881064                       # mshr miss rate for ReadExReq accesses
system.l2.ReadExReq_mshr_miss_rate::total     0.881064                       # mshr miss rate for ReadExReq accesses
system.l2.ReadCleanReq_mshr_miss_rate::cpu.inst     0.998519                       # mshr miss rate for ReadCleanReq accesses
system.l2.ReadCleanReq_mshr_miss_rate::total     0.998519                       # mshr miss rate for ReadCleanReq accesses
system.l2.ReadSharedReq_mshr_miss_rate::cpu.data     0.751670                       # mshr miss rate for ReadSharedReq accesses
system.l2.ReadSharedReq_mshr_miss_rate::total     0.751670                       # mshr miss rate for ReadSharedReq accesses
system.l2.demand_mshr_miss_rate::cpu.inst     0.998519                       # mshr miss rate for demand accesses
system.l2.demand_mshr_miss_rate::cpu.data     0.755219                       # mshr miss rate for demand accesses
system.l2.demand_mshr_miss_rate::total       0.755237                       # mshr miss rate for demand accesses
system.l2.overall_mshr_miss_rate::cpu.inst     0.998519                       # mshr miss rate for overall accesses
system.l2.overall_mshr_miss_rate::cpu.data     0.755219                       # mshr miss rate for overall accesses
system.l2.overall_mshr_miss_rate::total      0.755237                       # mshr miss rate for overall accesses
system.l2.ReadExReq_avg_mshr_miss_latency::cpu.data 83840.994460                       # average ReadExReq mshr miss latency
system.l2.ReadExReq_avg_mshr_miss_latency::total 83840.994460                       # average ReadExReq mshr miss latency
system.l2.ReadCleanReq_avg_mshr_miss_latency::cpu.inst 76136.498516                       # average ReadCleanReq mshr miss latency
system.l2.ReadCleanReq_avg_mshr_miss_latency::total 76136.498516                       # average ReadCleanReq mshr miss latency
system.l2.ReadSharedReq_avg_mshr_miss_latency::cpu.data 91113.620284                       # average ReadSharedReq mshr miss latency
system.l2.ReadSharedReq_avg_mshr_miss_latency::total 91113.620284                       # average ReadSharedReq mshr miss latency
system.l2.demand_avg_mshr_miss_latency::cpu.inst 76136.498516                       # average overall mshr miss latency
system.l2.demand_avg_mshr_miss_latency::cpu.data 90880.896073                       # average overall mshr miss latency
system.l2.demand_avg_mshr_miss_latency::total 90879.463940                       # average overall mshr miss latency
system.l2.overall_avg_mshr_miss_latency::cpu.inst 76136.498516                       # average overall mshr miss latency
system.l2.overall_avg_mshr_miss_latency::cpu.data 90880.896073                       # average overall mshr miss latency
system.l2.overall_avg_mshr_miss_latency::total 90879.463940                       # average overall mshr miss latency
system.membus.snoop_filter.tot_requests      13869193                       # Total number of requests made to the snoop filter.
system.membus.snoop_filter.hit_single_requests      6930087                       # Number of requests hitting in the snoop filter with a single holder of the requested data.
system.membus.snoop_filter.hit_multi_requests            0                       # Number of requests hitting in the snoop filter with multiple (>1) holders of the requested data.
system.membus.snoop_filter.tot_snoops               0                       # Total number of snoops made to the snoop filter.
system.membus.snoop_filter.hit_single_snoops            0                       # Number of snoops hitting in the snoop filter with a single holder of the requested data.
system.membus.snoop_filter.hit_multi_snoops            0                       # Number of snoops hitting in the snoop filter with multiple (>1) holders of the requested data.
system.membus.pwrStateResidencyTicks::UNDEFINED 1708497116500                       # Cumulative time (in ticks) in various power states
system.membus.trans_dist::ReadResp            6717076                       # Transaction distribution
system.membus.trans_dist::WritebackDirty      1182172                       # Transaction distribution
system.membus.trans_dist::CleanEvict          5747915                       # Transaction distribution
system.membus.trans_dist::ReadExReq            222030                       # Transaction distribution
system.membus.trans_dist::ReadExResp           222030                       # Transaction distribution
system.membus.trans_dist::ReadSharedReq       6717076                       # Transaction distribution
system.membus.pkt_count_system.l2.mem_side::system.mem_ctrls.port     20808299                       # Packet count per connected master and slave (bytes)
system.membus.pkt_count_system.l2.mem_side::total     20808299                       # Packet count per connected master and slave (bytes)
system.membus.pkt_count::total               20808299                       # Packet count per connected master and slave (bytes)
system.membus.pkt_size_system.l2.mem_side::system.mem_ctrls.port    519761792                       # Cumulative packet size per connected master and slave (bytes)
system.membus.pkt_size_system.l2.mem_side::total    519761792                       # Cumulative packet size per connected master and slave (bytes)
system.membus.pkt_size::total               519761792                       # Cumulative packet size per connected master and slave (bytes)
system.membus.snoops                                0                       # Total snoops (count)
system.membus.snoopTraffic                          0                       # Total snoop traffic (bytes)
system.membus.snoop_fanout::samples           6939106                       # Request fanout histogram
system.membus.snoop_fanout::mean                    0                       # Request fanout histogram
system.membus.snoop_fanout::stdev                   0                       # Request fanout histogram
system.membus.snoop_fanout::underflows              0      0.00%      0.00% # Request fanout histogram
system.membus.snoop_fanout::0                 6939106    100.00%    100.00% # Request fanout histogram
system.membus.snoop_fanout::1                       0      0.00%    100.00% # Request fanout histogram
system.membus.snoop_fanout::overflows               0      0.00%    100.00% # Request fanout histogram
system.membus.snoop_fanout::min_value               0                       # Request fanout histogram
system.membus.snoop_fanout::max_value               0                       # Request fanout histogram
system.membus.snoop_fanout::total             6939106                       # Request fanout histogram
system.membus.reqLayer2.occupancy         18604945500                       # Layer occupancy (ticks)
system.membus.reqLayer2.utilization               1.1                       # Layer utilization (%)
system.membus.respLayer1.occupancy        38671250000                       # Layer occupancy (ticks)
system.membus.respLayer1.utilization              2.3                       # Layer utilization (%)
system.tol2bus.snoop_filter.tot_requests     18373249                       # Total number of requests made to the snoop filter.
system.tol2bus.snoop_filter.hit_single_requests      9185263                       # Number of requests hitting in the snoop filter with a single holder of the requested data.
system.tol2bus.snoop_filter.hit_multi_requests            1                       # Number of requests hitting in the snoop filter with multiple (>1) holders of the requested data.
system.tol2bus.snoop_filter.tot_snoops         199808                       # Total number of snoops made to the snoop filter.
system.tol2bus.snoop_filter.hit_single_snoops       199808                       # Number of snoops hitting in the snoop filter with a single holder of the requested data.
system.tol2bus.snoop_filter.hit_multi_snoops            0                       # Number of snoops hitting in the snoop filter with multiple (>1) holders of the requested data.
system.tol2bus.pwrStateResidencyTicks::UNDEFINED 1708497116500                       # Cumulative time (in ticks) in various power states
system.tol2bus.trans_dist::ReadResp           8935984                       # Transaction distribution
system.tol2bus.trans_dist::WritebackDirty      2866925                       # Transaction distribution
system.tol2bus.trans_dist::CleanEvict        13296156                       # Transaction distribution
system.tol2bus.trans_dist::ReadExReq           252002                       # Transaction distribution
system.tol2bus.trans_dist::ReadExResp          252002                       # Transaction distribution
system.tol2bus.trans_dist::ReadCleanReq           675                       # Transaction distribution
system.tol2bus.trans_dist::ReadSharedReq      8935309                       # Transaction distribution
system.tol2bus.pkt_count_system.cpu.icache.mem_side::system.l2.cpu_side         1350                       # Packet count per connected master and slave (bytes)
system.tol2bus.pkt_count_system.cpu.dcache.mem_side::system.l2.cpu_side     27559885                       # Packet count per connected master and slave (bytes)
system.tol2bus.pkt_count::total              27561235                       # Packet count per connected master and slave (bytes)
system.tol2bus.pkt_size_system.cpu.icache.mem_side::system.l2.cpu_side        43200                       # Cumulative packet size per connected master and slave (bytes)
system.tol2bus.pkt_size_system.cpu.dcache.mem_side::system.l2.cpu_side    695812096                       # Cumulative packet size per connected master and slave (bytes)
system.tol2bus.pkt_size::total              695855296                       # Cumulative packet size per connected master and slave (bytes)
system.tol2bus.snoops                         6977818                       # Total snoops (count)
system.tol2bus.snoopTraffic                  75659008                       # Total snoop traffic (bytes)
system.tol2bus.snoop_fanout::samples         16165804                       # Request fanout histogram
system.tol2bus.snoop_fanout::mean            0.012360                       # Request fanout histogram
system.tol2bus.snoop_fanout::stdev           0.110486                       # Request fanout histogram
system.tol2bus.snoop_fanout::underflows             0      0.00%      0.00% # Request fanout histogram
system.tol2bus.snoop_fanout::0               15965995     98.76%     98.76% # Request fanout histogram
system.tol2bus.snoop_fanout::1                 199809      1.24%    100.00% # Request fanout histogram
system.tol2bus.snoop_fanout::2                      0      0.00%    100.00% # Request fanout histogram
system.tol2bus.snoop_fanout::3                      0      0.00%    100.00% # Request fanout histogram
system.tol2bus.snoop_fanout::4                      0      0.00%    100.00% # Request fanout histogram
system.tol2bus.snoop_fanout::overflows              0      0.00%    100.00% # Request fanout histogram
system.tol2bus.snoop_fanout::min_value              0                       # Request fanout histogram
system.tol2bus.snoop_fanout::max_value              1                       # Request fanout histogram
system.tol2bus.snoop_fanout::total           16165804                       # Request fanout histogram
system.tol2bus.reqLayer0.occupancy        10871377500                       # Layer occupancy (ticks)
system.tol2bus.reqLayer0.utilization              0.6                       # Layer utilization (%)
system.tol2bus.respLayer0.occupancy           1012500                       # Layer occupancy (ticks)
system.tol2bus.respLayer0.utilization             0.0                       # Layer utilization (%)
system.tol2bus.respLayer1.occupancy       13780966500                       # Layer occupancy (ticks)
system.tol2bus.respLayer1.utilization             0.8                       # Layer utilization (%)

---------- End Simulation Statistics   ----------
