
---------- Begin Simulation Statistics ----------
sim_seconds                                  1.689095                       # Number of seconds simulated
sim_ticks                                1689095126500                       # Number of ticks simulated
final_tick                               1689095126500                       # Number of ticks from beginning of simulation (restored from checkpoints and never reset)
sim_freq                                 1000000000000                       # Frequency of simulated ticks
host_inst_rate                                 344273                       # Simulator instruction rate (inst/s)
host_op_rate                                   603382                       # Simulator op (including micro ops) rate (op/s)
host_tick_rate                             1163018668                       # Simulator tick rate (ticks/s)
host_mem_usage                                 598056                       # Number of bytes of host memory used
host_seconds                                  1452.34                       # Real time elapsed on the host
sim_insts                                   500000000                       # Number of instructions simulated
sim_ops                                     876313781                       # Number of ops (including micro ops) simulated
system.voltage_domain.voltage                       1                       # Voltage in Volts
system.clk_domain.clock                          1000                       # Clock period in ticks
system.mem_ctrls.pwrStateResidencyTicks::UNDEFINED 1689095126500                       # Cumulative time (in ticks) in various power states
system.mem_ctrls.bytes_read::cpu.inst           44352                       # Number of bytes read from this memory
system.mem_ctrls.bytes_read::cpu.data       400471168                       # Number of bytes read from this memory
system.mem_ctrls.bytes_read::total          400515520                       # Number of bytes read from this memory
system.mem_ctrls.bytes_inst_read::cpu.inst        44352                       # Number of instructions bytes read from this memory
system.mem_ctrls.bytes_inst_read::total         44352                       # Number of instructions bytes read from this memory
system.mem_ctrls.bytes_written::writebacks     70381440                       # Number of bytes written to this memory
system.mem_ctrls.bytes_written::total        70381440                       # Number of bytes written to this memory
system.mem_ctrls.num_reads::cpu.inst              693                       # Number of read requests responded to by this memory
system.mem_ctrls.num_reads::cpu.data          6257362                       # Number of read requests responded to by this memory
system.mem_ctrls.num_reads::total             6258055                       # Number of read requests responded to by this memory
system.mem_ctrls.num_writes::writebacks       1099710                       # Number of write requests responded to by this memory
system.mem_ctrls.num_writes::total            1099710                       # Number of write requests responded to by this memory
system.mem_ctrls.bw_read::cpu.inst              26258                       # Total read bandwidth from this memory (bytes/s)
system.mem_ctrls.bw_read::cpu.data          237092134                       # Total read bandwidth from this memory (bytes/s)
system.mem_ctrls.bw_read::total             237118392                       # Total read bandwidth from this memory (bytes/s)
system.mem_ctrls.bw_inst_read::cpu.inst         26258                       # Instruction read bandwidth from this memory (bytes/s)
system.mem_ctrls.bw_inst_read::total            26258                       # Instruction read bandwidth from this memory (bytes/s)
system.mem_ctrls.bw_write::writebacks        41668133                       # Write bandwidth from this memory (bytes/s)
system.mem_ctrls.bw_write::total             41668133                       # Write bandwidth from this memory (bytes/s)
system.mem_ctrls.bw_total::writebacks        41668133                       # Total bandwidth to/from this memory (bytes/s)
system.mem_ctrls.bw_total::cpu.inst             26258                       # Total bandwidth to/from this memory (bytes/s)
system.mem_ctrls.bw_total::cpu.data         237092134                       # Total bandwidth to/from this memory (bytes/s)
system.mem_ctrls.bw_total::total            278786525                       # Total bandwidth to/from this memory (bytes/s)
system.mem_ctrls.readReqs                     6258055                       # Number of read requests accepted
system.mem_ctrls.writeReqs                    1099710                       # Number of write requests accepted
system.mem_ctrls.readBursts                   6258055                       # Number of DRAM read bursts, including those serviced by the write queue
system.mem_ctrls.writeBursts                  1099710                       # Number of DRAM write bursts, including those merged in the write queue
system.mem_ctrls.bytesReadDRAM              400137600                       # Total number of bytes read from DRAM
system.mem_ctrls.bytesReadWrQ                  377920                       # Total number of bytes read from write queue
system.mem_ctrls.bytesWritten                70379712                       # Total number of bytes written to DRAM
system.mem_ctrls.bytesReadSys               400515520                       # Total read bytes from the system interface side
system.mem_ctrls.bytesWrittenSys             70381440                       # Total written bytes from the system interface side
system.mem_ctrls.servicedByWrQ                   5905                       # Number of DRAM read bursts serviced by the write queue
system.mem_ctrls.mergedWrBursts                     0                       # Number of DRAM write bursts merged with an existing one
system.mem_ctrls.neitherReadNorWriteReqs            0                       # Number of requests that are neither read nor write
system.mem_ctrls.perBankRdBursts::0            404812                       # Per bank write bursts
system.mem_ctrls.perBankRdBursts::1            387865                       # Per bank write bursts
system.mem_ctrls.perBankRdBursts::2            387416                       # Per bank write bursts
system.mem_ctrls.perBankRdBursts::3            395198                       # Per bank write bursts
system.mem_ctrls.perBankRdBursts::4            379206                       # Per bank write bursts
system.mem_ctrls.perBankRdBursts::5            383690                       # Per bank write bursts
system.mem_ctrls.perBankRdBursts::6            385794                       # Per bank write bursts
system.mem_ctrls.perBankRdBursts::7            379323                       # Per bank write bursts
system.mem_ctrls.perBankRdBursts::8            387281                       # Per bank write bursts
system.mem_ctrls.perBankRdBursts::9            384213                       # Per bank write bursts
system.mem_ctrls.perBankRdBursts::10           385334                       # Per bank write bursts
system.mem_ctrls.perBankRdBursts::11           390180                       # Per bank write bursts
system.mem_ctrls.perBankRdBursts::12           399157                       # Per bank write bursts
system.mem_ctrls.perBankRdBursts::13           403158                       # Per bank write bursts
system.mem_ctrls.perBankRdBursts::14           399101                       # Per bank write bursts
system.mem_ctrls.perBankRdBursts::15           400422                       # Per bank write bursts
system.mem_ctrls.perBankWrBursts::0             71298                       # Per bank write bursts
system.mem_ctrls.perBankWrBursts::1             70333                       # Per bank write bursts
system.mem_ctrls.perBankWrBursts::2             70367                       # Per bank write bursts
system.mem_ctrls.perBankWrBursts::3             72043                       # Per bank write bursts
system.mem_ctrls.perBankWrBursts::4             66998                       # Per bank write bursts
system.mem_ctrls.perBankWrBursts::5             65550                       # Per bank write bursts
system.mem_ctrls.perBankWrBursts::6             66899                       # Per bank write bursts
system.mem_ctrls.perBankWrBursts::7             65113                       # Per bank write bursts
system.mem_ctrls.perBankWrBursts::8             66534                       # Per bank write bursts
system.mem_ctrls.perBankWrBursts::9             65309                       # Per bank write bursts
system.mem_ctrls.perBankWrBursts::10            65621                       # Per bank write bursts
system.mem_ctrls.perBankWrBursts::11            68972                       # Per bank write bursts
system.mem_ctrls.perBankWrBursts::12            71320                       # Per bank write bursts
system.mem_ctrls.perBankWrBursts::13            71286                       # Per bank write bursts
system.mem_ctrls.perBankWrBursts::14            70985                       # Per bank write bursts
system.mem_ctrls.perBankWrBursts::15            71055                       # Per bank write bursts
system.mem_ctrls.numRdRetry                         0                       # Number of times read queue was full causing retry
system.mem_ctrls.numWrRetry                         0                       # Number of times write queue was full causing retry
system.mem_ctrls.totGap                  1689077849500                       # Total gap between requests
system.mem_ctrls.readPktSize::0                     0                       # Read request sizes (log2)
system.mem_ctrls.readPktSize::1                     0                       # Read request sizes (log2)
system.mem_ctrls.readPktSize::2                     0                       # Read request sizes (log2)
system.mem_ctrls.readPktSize::3                     0                       # Read request sizes (log2)
system.mem_ctrls.readPktSize::4                     0                       # Read request sizes (log2)
system.mem_ctrls.readPktSize::5                     0                       # Read request sizes (log2)
system.mem_ctrls.readPktSize::6               6258055                       # Read request sizes (log2)
system.mem_ctrls.writePktSize::0                    0                       # Write request sizes (log2)
system.mem_ctrls.writePktSize::1                    0                       # Write request sizes (log2)
system.mem_ctrls.writePktSize::2                    0                       # Write request sizes (log2)
system.mem_ctrls.writePktSize::3                    0                       # Write request sizes (log2)
system.mem_ctrls.writePktSize::4                    0                       # Write request sizes (log2)
system.mem_ctrls.writePktSize::5                    0                       # Write request sizes (log2)
system.mem_ctrls.writePktSize::6              1099710                       # Write request sizes (log2)
system.mem_ctrls.rdQLenPdf::0                 6252150                       # What read queue length does an incoming req see
system.mem_ctrls.rdQLenPdf::1                       0                       # What read queue length does an incoming req see
system.mem_ctrls.rdQLenPdf::2                       0                       # What read queue length does an incoming req see
system.mem_ctrls.rdQLenPdf::3                       0                       # What read queue length does an incoming req see
system.mem_ctrls.rdQLenPdf::4                       0                       # What read queue length does an incoming req see
system.mem_ctrls.rdQLenPdf::5                       0                       # What read queue length does an incoming req see
system.mem_ctrls.rdQLenPdf::6                       0                       # What read queue length does an incoming req see
system.mem_ctrls.rdQLenPdf::7                       0                       # What read queue length does an incoming req see
system.mem_ctrls.rdQLenPdf::8                       0                       # What read queue length does an incoming req see
system.mem_ctrls.rdQLenPdf::9                       0                       # What read queue length does an incoming req see
system.mem_ctrls.rdQLenPdf::10                      0                       # What read queue length does an incoming req see
system.mem_ctrls.rdQLenPdf::11                      0                       # What read queue length does an incoming req see
system.mem_ctrls.rdQLenPdf::12                      0                       # What read queue length does an incoming req see
system.mem_ctrls.rdQLenPdf::13                      0                       # What read queue length does an incoming req see
system.mem_ctrls.rdQLenPdf::14                      0                       # What read queue length does an incoming req see
system.mem_ctrls.rdQLenPdf::15                      0                       # What read queue length does an incoming req see
system.mem_ctrls.rdQLenPdf::16                      0                       # What read queue length does an incoming req see
system.mem_ctrls.rdQLenPdf::17                      0                       # What read queue length does an incoming req see
system.mem_ctrls.rdQLenPdf::18                      0                       # What read queue length does an incoming req see
system.mem_ctrls.rdQLenPdf::19                      0                       # What read queue length does an incoming req see
system.mem_ctrls.rdQLenPdf::20                      0                       # What read queue length does an incoming req see
system.mem_ctrls.rdQLenPdf::21                      0                       # What read queue length does an incoming req see
system.mem_ctrls.rdQLenPdf::22                      0                       # What read queue length does an incoming req see
system.mem_ctrls.rdQLenPdf::23                      0                       # What read queue length does an incoming req see
system.mem_ctrls.rdQLenPdf::24                      0                       # What read queue length does an incoming req see
system.mem_ctrls.rdQLenPdf::25                      0                       # What read queue length does an incoming req see
system.mem_ctrls.rdQLenPdf::26                      0                       # What read queue length does an incoming req see
system.mem_ctrls.rdQLenPdf::27                      0                       # What read queue length does an incoming req see
system.mem_ctrls.rdQLenPdf::28                      0                       # What read queue length does an incoming req see
system.mem_ctrls.rdQLenPdf::29                      0                       # What read queue length does an incoming req see
system.mem_ctrls.rdQLenPdf::30                      0                       # What read queue length does an incoming req see
system.mem_ctrls.rdQLenPdf::31                      0                       # What read queue length does an incoming req see
system.mem_ctrls.wrQLenPdf::0                       1                       # What write queue length does an incoming req see
system.mem_ctrls.wrQLenPdf::1                       1                       # What write queue length does an incoming req see
system.mem_ctrls.wrQLenPdf::2                       1                       # What write queue length does an incoming req see
system.mem_ctrls.wrQLenPdf::3                       1                       # What write queue length does an incoming req see
system.mem_ctrls.wrQLenPdf::4                       1                       # What write queue length does an incoming req see
system.mem_ctrls.wrQLenPdf::5                       1                       # What write queue length does an incoming req see
system.mem_ctrls.wrQLenPdf::6                       1                       # What write queue length does an incoming req see
system.mem_ctrls.wrQLenPdf::7                       1                       # What write queue length does an incoming req see
system.mem_ctrls.wrQLenPdf::8                       1                       # What write queue length does an incoming req see
system.mem_ctrls.wrQLenPdf::9                       1                       # What write queue length does an incoming req see
system.mem_ctrls.wrQLenPdf::10                      1                       # What write queue length does an incoming req see
system.mem_ctrls.wrQLenPdf::11                      1                       # What write queue length does an incoming req see
system.mem_ctrls.wrQLenPdf::12                      1                       # What write queue length does an incoming req see
system.mem_ctrls.wrQLenPdf::13                      1                       # What write queue length does an incoming req see
system.mem_ctrls.wrQLenPdf::14                      1                       # What write queue length does an incoming req see
system.mem_ctrls.wrQLenPdf::15                  26951                       # What write queue length does an incoming req see
system.mem_ctrls.wrQLenPdf::16                  28421                       # What write queue length does an incoming req see
system.mem_ctrls.wrQLenPdf::17                  65255                       # What write queue length does an incoming req see
system.mem_ctrls.wrQLenPdf::18                  65271                       # What write queue length does an incoming req see
system.mem_ctrls.wrQLenPdf::19                  65271                       # What write queue length does an incoming req see
system.mem_ctrls.wrQLenPdf::20                  65272                       # What write queue length does an incoming req see
system.mem_ctrls.wrQLenPdf::21                  65272                       # What write queue length does an incoming req see
system.mem_ctrls.wrQLenPdf::22                  65270                       # What write queue length does an incoming req see
system.mem_ctrls.wrQLenPdf::23                  65270                       # What write queue length does an incoming req see
system.mem_ctrls.wrQLenPdf::24                  65270                       # What write queue length does an incoming req see
system.mem_ctrls.wrQLenPdf::25                  65271                       # What write queue length does an incoming req see
system.mem_ctrls.wrQLenPdf::26                  65271                       # What write queue length does an incoming req see
system.mem_ctrls.wrQLenPdf::27                  65270                       # What write queue length does an incoming req see
system.mem_ctrls.wrQLenPdf::28                  65273                       # What write queue length does an incoming req see
system.mem_ctrls.wrQLenPdf::29                  65277                       # What write queue length does an incoming req see
system.mem_ctrls.wrQLenPdf::30                  65270                       # What write queue length does an incoming req see
system.mem_ctrls.wrQLenPdf::31                  65271                       # What write queue length does an incoming req see
system.mem_ctrls.wrQLenPdf::32                  65269                       # What write queue length does an incoming req see
system.mem_ctrls.wrQLenPdf::33                      0                       # What write queue length does an incoming req see
system.mem_ctrls.wrQLenPdf::34                      0                       # What write queue length does an incoming req see
system.mem_ctrls.wrQLenPdf::35                      0                       # What write queue length does an incoming req see
system.mem_ctrls.wrQLenPdf::36                      0                       # What write queue length does an incoming req see
system.mem_ctrls.wrQLenPdf::37                      0                       # What write queue length does an incoming req see
system.mem_ctrls.wrQLenPdf::38                      0                       # What write queue length does an incoming req see
system.mem_ctrls.wrQLenPdf::39                      0                       # What write queue length does an incoming req see
system.mem_ctrls.wrQLenPdf::40                      0                       # What write queue length does an incoming req see
system.mem_ctrls.wrQLenPdf::41                      0                       # What write queue length does an incoming req see
system.mem_ctrls.wrQLenPdf::42                      0                       # What write queue length does an incoming req see
system.mem_ctrls.wrQLenPdf::43                      0                       # What write queue length does an incoming req see
system.mem_ctrls.wrQLenPdf::44                      0                       # What write queue length does an incoming req see
system.mem_ctrls.wrQLenPdf::45                      0                       # What write queue length does an incoming req see
system.mem_ctrls.wrQLenPdf::46                      0                       # What write queue length does an incoming req see
system.mem_ctrls.wrQLenPdf::47                      0                       # What write queue length does an incoming req see
system.mem_ctrls.wrQLenPdf::48                      0                       # What write queue length does an incoming req see
system.mem_ctrls.wrQLenPdf::49                      0                       # What write queue length does an incoming req see
system.mem_ctrls.wrQLenPdf::50                      0                       # What write queue length does an incoming req see
system.mem_ctrls.wrQLenPdf::51                      0                       # What write queue length does an incoming req see
system.mem_ctrls.wrQLenPdf::52                      0                       # What write queue length does an incoming req see
system.mem_ctrls.wrQLenPdf::53                      0                       # What write queue length does an incoming req see
system.mem_ctrls.wrQLenPdf::54                      0                       # What write queue length does an incoming req see
system.mem_ctrls.wrQLenPdf::55                      0                       # What write queue length does an incoming req see
system.mem_ctrls.wrQLenPdf::56                      0                       # What write queue length does an incoming req see
system.mem_ctrls.wrQLenPdf::57                      0                       # What write queue length does an incoming req see
system.mem_ctrls.wrQLenPdf::58                      0                       # What write queue length does an incoming req see
system.mem_ctrls.wrQLenPdf::59                      0                       # What write queue length does an incoming req see
system.mem_ctrls.wrQLenPdf::60                      0                       # What write queue length does an incoming req see
system.mem_ctrls.wrQLenPdf::61                      0                       # What write queue length does an incoming req see
system.mem_ctrls.wrQLenPdf::62                      0                       # What write queue length does an incoming req see
system.mem_ctrls.wrQLenPdf::63                      0                       # What write queue length does an incoming req see
system.mem_ctrls.bytesPerActivate::samples      5479598                       # Bytes accessed per row activation
system.mem_ctrls.bytesPerActivate::mean     85.867122                       # Bytes accessed per row activation
system.mem_ctrls.bytesPerActivate::gmean    72.003448                       # Bytes accessed per row activation
system.mem_ctrls.bytesPerActivate::stdev   109.586403                       # Bytes accessed per row activation
system.mem_ctrls.bytesPerActivate::0-127      4921907     89.82%     89.82% # Bytes accessed per row activation
system.mem_ctrls.bytesPerActivate::128-255       401813      7.33%     97.16% # Bytes accessed per row activation
system.mem_ctrls.bytesPerActivate::256-383        42820      0.78%     97.94% # Bytes accessed per row activation
system.mem_ctrls.bytesPerActivate::384-511        20300      0.37%     98.31% # Bytes accessed per row activation
system.mem_ctrls.bytesPerActivate::512-639        16500      0.30%     98.61% # Bytes accessed per row activation
system.mem_ctrls.bytesPerActivate::640-767        13475      0.25%     98.85% # Bytes accessed per row activation
system.mem_ctrls.bytesPerActivate::768-895         9953      0.18%     99.04% # Bytes accessed per row activation
system.mem_ctrls.bytesPerActivate::896-1023         7664      0.14%     99.18% # Bytes accessed per row activation
system.mem_ctrls.bytesPerActivate::1024-1151        45166      0.82%    100.00% # Bytes accessed per row activation
system.mem_ctrls.bytesPerActivate::total      5479598                       # Bytes accessed per row activation
system.mem_ctrls.rdPerTurnAround::samples        65269                       # Reads before turning the bus around for writes
system.mem_ctrls.rdPerTurnAround::mean      95.789900                       # Reads before turning the bus around for writes
system.mem_ctrls.rdPerTurnAround::gmean     56.745632                       # Reads before turning the bus around for writes
system.mem_ctrls.rdPerTurnAround::stdev    125.822979                       # Reads before turning the bus around for writes
system.mem_ctrls.rdPerTurnAround::0-511         64754     99.21%     99.21% # Reads before turning the bus around for writes
system.mem_ctrls.rdPerTurnAround::512-1023          508      0.78%     99.99% # Reads before turning the bus around for writes
system.mem_ctrls.rdPerTurnAround::1024-1535            6      0.01%    100.00% # Reads before turning the bus around for writes
system.mem_ctrls.rdPerTurnAround::13824-14335            1      0.00%    100.00% # Reads before turning the bus around for writes
system.mem_ctrls.rdPerTurnAround::total         65269                       # Reads before turning the bus around for writes
system.mem_ctrls.wrPerTurnAround::samples        65269                       # Writes before turning the bus around for reads
system.mem_ctrls.wrPerTurnAround::mean      16.848473                       # Writes before turning the bus around for reads
system.mem_ctrls.wrPerTurnAround::gmean     16.820443                       # Writes before turning the bus around for reads
system.mem_ctrls.wrPerTurnAround::stdev      0.977213                       # Writes before turning the bus around for reads
system.mem_ctrls.wrPerTurnAround::16            36849     56.46%     56.46% # Writes before turning the bus around for reads
system.mem_ctrls.wrPerTurnAround::17             1470      2.25%     58.71% # Writes before turning the bus around for reads
system.mem_ctrls.wrPerTurnAround::18            26941     41.28%     99.99% # Writes before turning the bus around for reads
system.mem_ctrls.wrPerTurnAround::19                9      0.01%    100.00% # Writes before turning the bus around for reads
system.mem_ctrls.wrPerTurnAround::total         65269                       # Writes before turning the bus around for reads
system.mem_ctrls.totQLat                 195876114250                       # Total ticks spent queuing
system.mem_ctrls.totMemAccLat            313103926750                       # Total ticks spent from burst creation until serviced by the DRAM
system.mem_ctrls.totBusLat                31260750000                       # Total ticks spent in databus transfers
system.mem_ctrls.avgQLat                     31329.40                       # Average queueing delay per DRAM burst
system.mem_ctrls.avgBusLat                    5000.00                       # Average bus latency per DRAM burst
system.mem_ctrls.avgMemAccLat                50079.40                       # Average memory access latency per DRAM burst
system.mem_ctrls.avgRdBW                       236.89                       # Average DRAM read bandwidth in MiByte/s
system.mem_ctrls.avgWrBW                        41.67                       # Average achieved write bandwidth in MiByte/s
system.mem_ctrls.avgRdBWSys                    237.12                       # Average system read bandwidth in MiByte/s
system.mem_ctrls.avgWrBWSys                     41.67                       # Average system write bandwidth in MiByte/s
system.mem_ctrls.peakBW                      12800.00                       # Theoretical peak bandwidth in MiByte/s
system.mem_ctrls.busUtil                         2.18                       # Data bus utilization in percentage
system.mem_ctrls.busUtilRead                     1.85                       # Data bus utilization in percentage for reads
system.mem_ctrls.busUtilWrite                    0.33                       # Data bus utilization in percentage for writes
system.mem_ctrls.avgRdQLen                       1.00                       # Average read queue length when enqueuing
system.mem_ctrls.avgWrQLen                      24.74                       # Average write queue length when enqueuing
system.mem_ctrls.readRowHits                  1339720                       # Number of row buffer hits during reads
system.mem_ctrls.writeRowHits                  532515                       # Number of row buffer hits during writes
system.mem_ctrls.readRowHitRate                 21.43                       # Row buffer hit rate for reads
system.mem_ctrls.writeRowHitRate                48.42                       # Row buffer hit rate for writes
system.mem_ctrls.avgGap                     229563.98                       # Average gap between requests
system.mem_ctrls.pageHitRate                    25.47                       # Row buffer hit rate, read and write combined
system.mem_ctrls_0.actEnergy              19431245820                       # Energy for activate commands per rank (pJ)
system.mem_ctrls_0.preEnergy              10327952085                       # Energy for precharge commands per rank (pJ)
system.mem_ctrls_0.readEnergy             22157590560                       # Energy for read commands per rank (pJ)
system.mem_ctrls_0.writeEnergy             2863697220                       # Energy for write commands per rank (pJ)
system.mem_ctrls_0.refreshEnergy         125103210960.000015                       # Energy for refresh commands per rank (pJ)
system.mem_ctrls_0.actBackEnergy          95910178470                       # Energy for active background per rank (pJ)
system.mem_ctrls_0.preBackEnergy           4173696960                       # Energy for precharge background per rank (pJ)
system.mem_ctrls_0.actPowerDownEnergy    480569909850                       # Energy for active power-down per rank (pJ)
system.mem_ctrls_0.prePowerDownEnergy     77418111840                       # Energy for precharge power-down per rank (pJ)
system.mem_ctrls_0.selfRefreshEnergy      59215691265                       # Energy for self refresh per rank (pJ)
system.mem_ctrls_0.totalEnergy           897184648800                       # Total energy per rank (pJ)
system.mem_ctrls_0.averagePower            531.162889                       # Core power per rank (mW)
system.mem_ctrls_0.totalIdleTime         1467864868500                       # Total Idle time Per DRAM Rank
system.mem_ctrls_0.memoryStateTime::IDLE   5109320750                       # Time in different power states
system.mem_ctrls_0.memoryStateTime::REF   53011754000                       # Time in different power states
system.mem_ctrls_0.memoryStateTime::SREF 212376048750                       # Time in different power states
system.mem_ctrls_0.memoryStateTime::PRE_PDN 201609673000                       # Time in different power states
system.mem_ctrls_0.memoryStateTime::ACT  163106322500                       # Time in different power states
system.mem_ctrls_0.memoryStateTime::ACT_PDN 1053882007500                       # Time in different power states
system.mem_ctrls_1.actEnergy              19693083900                       # Energy for activate commands per rank (pJ)
system.mem_ctrls_1.preEnergy              10467122325                       # Energy for precharge commands per rank (pJ)
system.mem_ctrls_1.readEnergy             22482760440                       # Energy for read commands per rank (pJ)
system.mem_ctrls_1.writeEnergy             2876648040                       # Energy for write commands per rank (pJ)
system.mem_ctrls_1.refreshEnergy         125090303520.000015                       # Energy for refresh commands per rank (pJ)
system.mem_ctrls_1.actBackEnergy          96455495190                       # Energy for active background per rank (pJ)
system.mem_ctrls_1.preBackEnergy           4285552800                       # Energy for precharge background per rank (pJ)
system.mem_ctrls_1.actPowerDownEnergy    479824115010                       # Energy for active power-down per rank (pJ)
system.mem_ctrls_1.prePowerDownEnergy     77776424640                       # Energy for precharge power-down per rank (pJ)
system.mem_ctrls_1.selfRefreshEnergy      58955068935                       # Energy for self refresh per rank (pJ)
system.mem_ctrls_1.totalEnergy           897920606160                       # Total energy per rank (pJ)
system.mem_ctrls_1.averagePower            531.598596                       # Core power per rank (mW)
system.mem_ctrls_1.totalIdleTime         1466375572250                       # Total Idle time Per DRAM Rank
system.mem_ctrls_1.memoryStateTime::IDLE   5065225750                       # Time in different power states
system.mem_ctrls_1.memoryStateTime::REF   53005640000                       # Time in different power states
system.mem_ctrls_1.memoryStateTime::SREF 211589777250                       # Time in different power states
system.mem_ctrls_1.memoryStateTime::PRE_PDN 202543032250                       # Time in different power states
system.mem_ctrls_1.memoryStateTime::ACT  164646682750                       # Time in different power states
system.mem_ctrls_1.memoryStateTime::ACT_PDN 1052244768500                       # Time in different power states
system.pwrStateResidencyTicks::UNDEFINED 1689095126500                       # Cumulative time (in ticks) in various power states
system.cpu_voltage_domain.voltage                   1                       # Voltage in Volts
system.cpu_clk_domain.clock                       500                       # Clock period in ticks
system.cpu.dtb.walker.pwrStateResidencyTicks::UNDEFINED 1689095126500                       # Cumulative time (in ticks) in various power states
system.cpu.apic_clk_domain.clock                 8000                       # Clock period in ticks
system.cpu.interrupts.pwrStateResidencyTicks::UNDEFINED 1689095126500                       # Cumulative time (in ticks) in various power states
system.cpu.itb.walker.pwrStateResidencyTicks::UNDEFINED 1689095126500                       # Cumulative time (in ticks) in various power states
system.cpu.workload.num_syscalls                  168                       # Number of system calls
system.cpu.pwrStateResidencyTicks::ON    1689095126500                       # Cumulative time (in ticks) in various power states
system.cpu.numCycles                       3378190253                       # number of cpu cycles simulated
system.cpu.numWorkItemsStarted                      0                       # number of work items this cpu started
system.cpu.numWorkItemsCompleted                    0                       # number of work items this cpu completed
system.cpu.committedInsts                   500000000                       # Number of instructions committed
system.cpu.committedOps                     876313781                       # Number of ops (including micro ops) committed
system.cpu.num_int_alu_accesses             872966677                       # Number of integer alu accesses
system.cpu.num_fp_alu_accesses                2882231                       # Number of float alu accesses
system.cpu.num_func_calls                    11025254                       # number of times a function call or return occured
system.cpu.num_conditional_control_insts     75981009                       # number of instructions that are conditional controls
system.cpu.num_int_insts                    872966677                       # number of integer instructions
system.cpu.num_fp_insts                       2882231                       # number of float instructions
system.cpu.num_int_register_reads          1835046952                       # number of times the integer registers were read
system.cpu.num_int_register_writes          703076416                       # number of times the integer registers were written
system.cpu.num_fp_register_reads              4386063                       # number of times the floating registers were read
system.cpu.num_fp_register_writes             2464405                       # number of times the floating registers were written
system.cpu.num_cc_register_reads            441654669                       # number of times the CC registers were read
system.cpu.num_cc_register_writes           253505512                       # number of times the CC registers were written
system.cpu.num_mem_refs                     293763598                       # number of memory refs
system.cpu.num_load_insts                   221285042                       # Number of load instructions
system.cpu.num_store_insts                   72478556                       # Number of store instructions
system.cpu.num_idle_cycles                          0                       # Number of idle cycles
system.cpu.num_busy_cycles                 3378190253                       # Number of busy cycles
system.cpu.not_idle_fraction                        1                       # Percentage of non-idle cycles
system.cpu.idle_fraction                            0                       # Percentage of idle cycles
system.cpu.Branches                          97901001                       # Number of branches fetched
system.cpu.op_class::No_OpClass                939430      0.11%      0.11% # Class of executed instruction
system.cpu.op_class::IntAlu                 578420252     66.01%     66.11% # Class of executed instruction
system.cpu.op_class::IntMult                   907073      0.10%     66.22% # Class of executed instruction
system.cpu.op_class::IntDiv                        42      0.00%     66.22% # Class of executed instruction
system.cpu.op_class::FloatAdd                 2283386      0.26%     66.48% # Class of executed instruction
system.cpu.op_class::FloatCmp                       0      0.00%     66.48% # Class of executed instruction
system.cpu.op_class::FloatCvt                       0      0.00%     66.48% # Class of executed instruction
system.cpu.op_class::FloatMult                      0      0.00%     66.48% # Class of executed instruction
system.cpu.op_class::FloatDiv                       0      0.00%     66.48% # Class of executed instruction
system.cpu.op_class::FloatSqrt                      0      0.00%     66.48% # Class of executed instruction
system.cpu.op_class::SimdAdd                        0      0.00%     66.48% # Class of executed instruction
system.cpu.op_class::SimdAddAcc                     0      0.00%     66.48% # Class of executed instruction
system.cpu.op_class::SimdAlu                        0      0.00%     66.48% # Class of executed instruction
system.cpu.op_class::SimdCmp                        0      0.00%     66.48% # Class of executed instruction
system.cpu.op_class::SimdCvt                        0      0.00%     66.48% # Class of executed instruction
system.cpu.op_class::SimdMisc                       0      0.00%     66.48% # Class of executed instruction
system.cpu.op_class::SimdMult                       0      0.00%     66.48% # Class of executed instruction
system.cpu.op_class::SimdMultAcc                    0      0.00%     66.48% # Class of executed instruction
system.cpu.op_class::SimdShift                      0      0.00%     66.48% # Class of executed instruction
system.cpu.op_class::SimdShiftAcc                   0      0.00%     66.48% # Class of executed instruction
system.cpu.op_class::SimdSqrt                       0      0.00%     66.48% # Class of executed instruction
system.cpu.op_class::SimdFloatAdd                   0      0.00%     66.48% # Class of executed instruction
system.cpu.op_class::SimdFloatAlu                   0      0.00%     66.48% # Class of executed instruction
system.cpu.op_class::SimdFloatCmp                   0      0.00%     66.48% # Class of executed instruction
system.cpu.op_class::SimdFloatCvt                   0      0.00%     66.48% # Class of executed instruction
system.cpu.op_class::SimdFloatDiv                   0      0.00%     66.48% # Class of executed instruction
system.cpu.op_class::SimdFloatMisc                  0      0.00%     66.48% # Class of executed instruction
system.cpu.op_class::SimdFloatMult                  0      0.00%     66.48% # Class of executed instruction
system.cpu.op_class::SimdFloatMultAcc               0      0.00%     66.48% # Class of executed instruction
system.cpu.op_class::SimdFloatSqrt                  0      0.00%     66.48% # Class of executed instruction
system.cpu.op_class::MemRead                221285042     25.25%     91.73% # Class of executed instruction
system.cpu.op_class::MemWrite                72478556      8.27%    100.00% # Class of executed instruction
system.cpu.op_class::IprAccess                      0      0.00%    100.00% # Class of executed instruction
system.cpu.op_class::InstPrefetch                   0      0.00%    100.00% # Class of executed instruction
system.cpu.op_class::total                  876313781                       # Class of executed instruction
system.cpu.dcache.tags.pwrStateResidencyTicks::UNDEFINED 1689095126500                       # Cumulative time (in ticks) in various power states
system.cpu.dcache.tags.replacements          12499842                       # number of replacements
system.cpu.dcache.tags.tagsinuse          1023.835999                       # Cycle average of tags in use
system.cpu.dcache.tags.total_refs           281276860                       # Total number of references to valid blocks.
system.cpu.dcache.tags.sampled_refs          12500866                       # Sample count of references to valid blocks.
system.cpu.dcache.tags.avg_refs             22.500590                       # Average number of references to valid blocks.
system.cpu.dcache.tags.warmup_cycle         684585500                       # Cycle when the warmup percentage was hit.
system.cpu.dcache.tags.occ_blocks::cpu.data  1023.835999                       # Average occupied blocks per requestor
system.cpu.dcache.tags.occ_percent::cpu.data     0.999840                       # Average percentage of cache occupancy
system.cpu.dcache.tags.occ_percent::total     0.999840                       # Average percentage of cache occupancy
system.cpu.dcache.tags.occ_task_id_blocks::1024         1024                       # Occupied blocks per task id
system.cpu.dcache.tags.age_task_id_blocks_1024::0            5                       # Occupied blocks per task id
system.cpu.dcache.tags.age_task_id_blocks_1024::1          648                       # Occupied blocks per task id
system.cpu.dcache.tags.age_task_id_blocks_1024::2          358                       # Occupied blocks per task id
system.cpu.dcache.tags.age_task_id_blocks_1024::3           11                       # Occupied blocks per task id
system.cpu.dcache.tags.age_task_id_blocks_1024::4            2                       # Occupied blocks per task id
system.cpu.dcache.tags.occ_task_id_percent::1024            1                       # Percentage of cache occupancy per task id
system.cpu.dcache.tags.tag_accesses        1187611770                       # Number of tag accesses
system.cpu.dcache.tags.data_accesses       1187611770                       # Number of data accesses
system.cpu.dcache.pwrStateResidencyTicks::UNDEFINED 1689095126500                       # Cumulative time (in ticks) in various power states
system.cpu.dcache.ReadReq_hits::cpu.data    209214734                       # number of ReadReq hits
system.cpu.dcache.ReadReq_hits::total       209214734                       # number of ReadReq hits
system.cpu.dcache.WriteReq_hits::cpu.data     72062126                       # number of WriteReq hits
system.cpu.dcache.WriteReq_hits::total       72062126                       # number of WriteReq hits
system.cpu.dcache.demand_hits::cpu.data     281276860                       # number of demand (read+write) hits
system.cpu.dcache.demand_hits::total        281276860                       # number of demand (read+write) hits
system.cpu.dcache.overall_hits::cpu.data    281276860                       # number of overall hits
system.cpu.dcache.overall_hits::total       281276860                       # number of overall hits
system.cpu.dcache.ReadReq_misses::cpu.data     12084435                       # number of ReadReq misses
system.cpu.dcache.ReadReq_misses::total      12084435                       # number of ReadReq misses
system.cpu.dcache.WriteReq_misses::cpu.data       416431                       # number of WriteReq misses
system.cpu.dcache.WriteReq_misses::total       416431                       # number of WriteReq misses
system.cpu.dcache.demand_misses::cpu.data     12500866                       # number of demand (read+write) misses
system.cpu.dcache.demand_misses::total       12500866                       # number of demand (read+write) misses
system.cpu.dcache.overall_misses::cpu.data     12500866                       # number of overall misses
system.cpu.dcache.overall_misses::total      12500866                       # number of overall misses
system.cpu.dcache.ReadReq_miss_latency::cpu.data 705700777500                       # number of ReadReq miss cycles
system.cpu.dcache.ReadReq_miss_latency::total 705700777500                       # number of ReadReq miss cycles
system.cpu.dcache.WriteReq_miss_latency::cpu.data  23721240000                       # number of WriteReq miss cycles
system.cpu.dcache.WriteReq_miss_latency::total  23721240000                       # number of WriteReq miss cycles
system.cpu.dcache.demand_miss_latency::cpu.data 729422017500                       # number of demand (read+write) miss cycles
system.cpu.dcache.demand_miss_latency::total 729422017500                       # number of demand (read+write) miss cycles
system.cpu.dcache.overall_miss_latency::cpu.data 729422017500                       # number of overall miss cycles
system.cpu.dcache.overall_miss_latency::total 729422017500                       # number of overall miss cycles
system.cpu.dcache.ReadReq_accesses::cpu.data    221299169                       # number of ReadReq accesses(hits+misses)
system.cpu.dcache.ReadReq_accesses::total    221299169                       # number of ReadReq accesses(hits+misses)
system.cpu.dcache.WriteReq_accesses::cpu.data     72478557                       # number of WriteReq accesses(hits+misses)
system.cpu.dcache.WriteReq_accesses::total     72478557                       # number of WriteReq accesses(hits+misses)
system.cpu.dcache.demand_accesses::cpu.data    293777726                       # number of demand (read+write) accesses
system.cpu.dcache.demand_accesses::total    293777726                       # number of demand (read+write) accesses
system.cpu.dcache.overall_accesses::cpu.data    293777726                       # number of overall (read+write) accesses
system.cpu.dcache.overall_accesses::total    293777726                       # number of overall (read+write) accesses
system.cpu.dcache.ReadReq_miss_rate::cpu.data     0.054607                       # miss rate for ReadReq accesses
system.cpu.dcache.ReadReq_miss_rate::total     0.054607                       # miss rate for ReadReq accesses
system.cpu.dcache.WriteReq_miss_rate::cpu.data     0.005746                       # miss rate for WriteReq accesses
system.cpu.dcache.WriteReq_miss_rate::total     0.005746                       # miss rate for WriteReq accesses
system.cpu.dcache.demand_miss_rate::cpu.data     0.042552                       # miss rate for demand accesses
system.cpu.dcache.demand_miss_rate::total     0.042552                       # miss rate for demand accesses
system.cpu.dcache.overall_miss_rate::cpu.data     0.042552                       # miss rate for overall accesses
system.cpu.dcache.overall_miss_rate::total     0.042552                       # miss rate for overall accesses
system.cpu.dcache.ReadReq_avg_miss_latency::cpu.data 58397.498725                       # average ReadReq miss latency
system.cpu.dcache.ReadReq_avg_miss_latency::total 58397.498725                       # average ReadReq miss latency
system.cpu.dcache.WriteReq_avg_miss_latency::cpu.data 56963.194383                       # average WriteReq miss latency
system.cpu.dcache.WriteReq_avg_miss_latency::total 56963.194383                       # average WriteReq miss latency
system.cpu.dcache.demand_avg_miss_latency::cpu.data 58349.718931                       # average overall miss latency
system.cpu.dcache.demand_avg_miss_latency::total 58349.718931                       # average overall miss latency
system.cpu.dcache.overall_avg_miss_latency::cpu.data 58349.718931                       # average overall miss latency
system.cpu.dcache.overall_avg_miss_latency::total 58349.718931                       # average overall miss latency
system.cpu.dcache.blocked_cycles::no_mshrs            0                       # number of cycles access was blocked
system.cpu.dcache.blocked_cycles::no_targets            0                       # number of cycles access was blocked
system.cpu.dcache.blocked::no_mshrs                 0                       # number of cycles access was blocked
system.cpu.dcache.blocked::no_targets               0                       # number of cycles access was blocked
system.cpu.dcache.avg_blocked_cycles::no_mshrs          nan                       # average number of cycles each access was blocked
system.cpu.dcache.avg_blocked_cycles::no_targets          nan                       # average number of cycles each access was blocked
system.cpu.dcache.writebacks::writebacks      3601711                       # number of writebacks
system.cpu.dcache.writebacks::total           3601711                       # number of writebacks
system.cpu.dcache.ReadReq_mshr_misses::cpu.data     12084435                       # number of ReadReq MSHR misses
system.cpu.dcache.ReadReq_mshr_misses::total     12084435                       # number of ReadReq MSHR misses
system.cpu.dcache.WriteReq_mshr_misses::cpu.data       416431                       # number of WriteReq MSHR misses
system.cpu.dcache.WriteReq_mshr_misses::total       416431                       # number of WriteReq MSHR misses
system.cpu.dcache.demand_mshr_misses::cpu.data     12500866                       # number of demand (read+write) MSHR misses
system.cpu.dcache.demand_mshr_misses::total     12500866                       # number of demand (read+write) MSHR misses
system.cpu.dcache.overall_mshr_misses::cpu.data     12500866                       # number of overall MSHR misses
system.cpu.dcache.overall_mshr_misses::total     12500866                       # number of overall MSHR misses
system.cpu.dcache.ReadReq_mshr_miss_latency::cpu.data 693616342500                       # number of ReadReq MSHR miss cycles
system.cpu.dcache.ReadReq_mshr_miss_latency::total 693616342500                       # number of ReadReq MSHR miss cycles
system.cpu.dcache.WriteReq_mshr_miss_latency::cpu.data  23304809000                       # number of WriteReq MSHR miss cycles
system.cpu.dcache.WriteReq_mshr_miss_latency::total  23304809000                       # number of WriteReq MSHR miss cycles
system.cpu.dcache.demand_mshr_miss_latency::cpu.data 716921151500                       # number of demand (read+write) MSHR miss cycles
system.cpu.dcache.demand_mshr_miss_latency::total 716921151500                       # number of demand (read+write) MSHR miss cycles
system.cpu.dcache.overall_mshr_miss_latency::cpu.data 716921151500                       # number of overall MSHR miss cycles
system.cpu.dcache.overall_mshr_miss_latency::total 716921151500                       # number of overall MSHR miss cycles
system.cpu.dcache.ReadReq_mshr_miss_rate::cpu.data     0.054607                       # mshr miss rate for ReadReq accesses
system.cpu.dcache.ReadReq_mshr_miss_rate::total     0.054607                       # mshr miss rate for ReadReq accesses
system.cpu.dcache.WriteReq_mshr_miss_rate::cpu.data     0.005746                       # mshr miss rate for WriteReq accesses
system.cpu.dcache.WriteReq_mshr_miss_rate::total     0.005746                       # mshr miss rate for WriteReq accesses
system.cpu.dcache.demand_mshr_miss_rate::cpu.data     0.042552                       # mshr miss rate for demand accesses
system.cpu.dcache.demand_mshr_miss_rate::total     0.042552                       # mshr miss rate for demand accesses
system.cpu.dcache.overall_mshr_miss_rate::cpu.data     0.042552                       # mshr miss rate for overall accesses
system.cpu.dcache.overall_mshr_miss_rate::total     0.042552                       # mshr miss rate for overall accesses
system.cpu.dcache.ReadReq_avg_mshr_miss_latency::cpu.data 57397.498725                       # average ReadReq mshr miss latency
system.cpu.dcache.ReadReq_avg_mshr_miss_latency::total 57397.498725                       # average ReadReq mshr miss latency
system.cpu.dcache.WriteReq_avg_mshr_miss_latency::cpu.data 55963.194383                       # average WriteReq mshr miss latency
system.cpu.dcache.WriteReq_avg_mshr_miss_latency::total 55963.194383                       # average WriteReq mshr miss latency
system.cpu.dcache.demand_avg_mshr_miss_latency::cpu.data 57349.718931                       # average overall mshr miss latency
system.cpu.dcache.demand_avg_mshr_miss_latency::total 57349.718931                       # average overall mshr miss latency
system.cpu.dcache.overall_avg_mshr_miss_latency::cpu.data 57349.718931                       # average overall mshr miss latency
system.cpu.dcache.overall_avg_mshr_miss_latency::total 57349.718931                       # average overall mshr miss latency
system.cpu.dtb_walker_cache.tags.pwrStateResidencyTicks::UNDEFINED 1689095126500                       # Cumulative time (in ticks) in various power states
system.cpu.dtb_walker_cache.tags.replacements            0                       # number of replacements
system.cpu.dtb_walker_cache.tags.tagsinuse            0                       # Cycle average of tags in use
system.cpu.dtb_walker_cache.tags.total_refs            0                       # Total number of references to valid blocks.
system.cpu.dtb_walker_cache.tags.sampled_refs            0                       # Sample count of references to valid blocks.
system.cpu.dtb_walker_cache.tags.avg_refs          nan                       # Average number of references to valid blocks.
system.cpu.dtb_walker_cache.tags.warmup_cycle            0                       # Cycle when the warmup percentage was hit.
system.cpu.dtb_walker_cache.tags.tag_accesses            0                       # Number of tag accesses
system.cpu.dtb_walker_cache.tags.data_accesses            0                       # Number of data accesses
system.cpu.dtb_walker_cache.pwrStateResidencyTicks::UNDEFINED 1689095126500                       # Cumulative time (in ticks) in various power states
system.cpu.dtb_walker_cache.blocked_cycles::no_mshrs            0                       # number of cycles access was blocked
system.cpu.dtb_walker_cache.blocked_cycles::no_targets            0                       # number of cycles access was blocked
system.cpu.dtb_walker_cache.blocked::no_mshrs            0                       # number of cycles access was blocked
system.cpu.dtb_walker_cache.blocked::no_targets            0                       # number of cycles access was blocked
system.cpu.dtb_walker_cache.avg_blocked_cycles::no_mshrs          nan                       # average number of cycles each access was blocked
system.cpu.dtb_walker_cache.avg_blocked_cycles::no_targets          nan                       # average number of cycles each access was blocked
system.cpu.icache.tags.pwrStateResidencyTicks::UNDEFINED 1689095126500                       # Cumulative time (in ticks) in various power states
system.cpu.icache.tags.replacements             85660                       # number of replacements
system.cpu.icache.tags.tagsinuse           255.601786                       # Cycle average of tags in use
system.cpu.icache.tags.total_refs           677232028                       # Total number of references to valid blocks.
system.cpu.icache.tags.sampled_refs             85916                       # Sample count of references to valid blocks.
system.cpu.icache.tags.avg_refs           7882.490200                       # Average number of references to valid blocks.
system.cpu.icache.tags.warmup_cycle      333847022500                       # Cycle when the warmup percentage was hit.
system.cpu.icache.tags.occ_blocks::cpu.inst   255.601786                       # Average occupied blocks per requestor
system.cpu.icache.tags.occ_percent::cpu.inst     0.998444                       # Average percentage of cache occupancy
system.cpu.icache.tags.occ_percent::total     0.998444                       # Average percentage of cache occupancy
system.cpu.icache.tags.occ_task_id_blocks::1024          256                       # Occupied blocks per task id
system.cpu.icache.tags.age_task_id_blocks_1024::4          256                       # Occupied blocks per task id
system.cpu.icache.tags.occ_task_id_percent::1024            1                       # Percentage of cache occupancy per task id
system.cpu.icache.tags.tag_accesses        2709357692                       # Number of tag accesses
system.cpu.icache.tags.data_accesses       2709357692                       # Number of data accesses
system.cpu.icache.pwrStateResidencyTicks::UNDEFINED 1689095126500                       # Cumulative time (in ticks) in various power states
system.cpu.icache.ReadReq_hits::cpu.inst    677232028                       # number of ReadReq hits
system.cpu.icache.ReadReq_hits::total       677232028                       # number of ReadReq hits
system.cpu.icache.demand_hits::cpu.inst     677232028                       # number of demand (read+write) hits
system.cpu.icache.demand_hits::total        677232028                       # number of demand (read+write) hits
system.cpu.icache.overall_hits::cpu.inst    677232028                       # number of overall hits
system.cpu.icache.overall_hits::total       677232028                       # number of overall hits
system.cpu.icache.ReadReq_misses::cpu.inst        85916                       # number of ReadReq misses
system.cpu.icache.ReadReq_misses::total         85916                       # number of ReadReq misses
system.cpu.icache.demand_misses::cpu.inst        85916                       # number of demand (read+write) misses
system.cpu.icache.demand_misses::total          85916                       # number of demand (read+write) misses
system.cpu.icache.overall_misses::cpu.inst        85916                       # number of overall misses
system.cpu.icache.overall_misses::total         85916                       # number of overall misses
system.cpu.icache.ReadReq_miss_latency::cpu.inst   1171287500                       # number of ReadReq miss cycles
system.cpu.icache.ReadReq_miss_latency::total   1171287500                       # number of ReadReq miss cycles
system.cpu.icache.demand_miss_latency::cpu.inst   1171287500                       # number of demand (read+write) miss cycles
system.cpu.icache.demand_miss_latency::total   1171287500                       # number of demand (read+write) miss cycles
system.cpu.icache.overall_miss_latency::cpu.inst   1171287500                       # number of overall miss cycles
system.cpu.icache.overall_miss_latency::total   1171287500                       # number of overall miss cycles
system.cpu.icache.ReadReq_accesses::cpu.inst    677317944                       # number of ReadReq accesses(hits+misses)
system.cpu.icache.ReadReq_accesses::total    677317944                       # number of ReadReq accesses(hits+misses)
system.cpu.icache.demand_accesses::cpu.inst    677317944                       # number of demand (read+write) accesses
system.cpu.icache.demand_accesses::total    677317944                       # number of demand (read+write) accesses
system.cpu.icache.overall_accesses::cpu.inst    677317944                       # number of overall (read+write) accesses
system.cpu.icache.overall_accesses::total    677317944                       # number of overall (read+write) accesses
system.cpu.icache.ReadReq_miss_rate::cpu.inst     0.000127                       # miss rate for ReadReq accesses
system.cpu.icache.ReadReq_miss_rate::total     0.000127                       # miss rate for ReadReq accesses
system.cpu.icache.demand_miss_rate::cpu.inst     0.000127                       # miss rate for demand accesses
system.cpu.icache.demand_miss_rate::total     0.000127                       # miss rate for demand accesses
system.cpu.icache.overall_miss_rate::cpu.inst     0.000127                       # miss rate for overall accesses
system.cpu.icache.overall_miss_rate::total     0.000127                       # miss rate for overall accesses
system.cpu.icache.ReadReq_avg_miss_latency::cpu.inst 13632.937986                       # average ReadReq miss latency
system.cpu.icache.ReadReq_avg_miss_latency::total 13632.937986                       # average ReadReq miss latency
system.cpu.icache.demand_avg_miss_latency::cpu.inst 13632.937986                       # average overall miss latency
system.cpu.icache.demand_avg_miss_latency::total 13632.937986                       # average overall miss latency
system.cpu.icache.overall_avg_miss_latency::cpu.inst 13632.937986                       # average overall miss latency
system.cpu.icache.overall_avg_miss_latency::total 13632.937986                       # average overall miss latency
system.cpu.icache.blocked_cycles::no_mshrs            0                       # number of cycles access was blocked
system.cpu.icache.blocked_cycles::no_targets            0                       # number of cycles access was blocked
system.cpu.icache.blocked::no_mshrs                 0                       # number of cycles access was blocked
system.cpu.icache.blocked::no_targets               0                       # number of cycles access was blocked
system.cpu.icache.avg_blocked_cycles::no_mshrs          nan                       # average number of cycles each access was blocked
system.cpu.icache.avg_blocked_cycles::no_targets          nan                       # average number of cycles each access was blocked
system.cpu.icache.writebacks::writebacks        85660                       # number of writebacks
system.cpu.icache.writebacks::total             85660                       # number of writebacks
system.cpu.icache.ReadReq_mshr_misses::cpu.inst        85916                       # number of ReadReq MSHR misses
system.cpu.icache.ReadReq_mshr_misses::total        85916                       # number of ReadReq MSHR misses
system.cpu.icache.demand_mshr_misses::cpu.inst        85916                       # number of demand (read+write) MSHR misses
system.cpu.icache.demand_mshr_misses::total        85916                       # number of demand (read+write) MSHR misses
system.cpu.icache.overall_mshr_misses::cpu.inst        85916                       # number of overall MSHR misses
system.cpu.icache.overall_mshr_misses::total        85916                       # number of overall MSHR misses
system.cpu.icache.ReadReq_mshr_miss_latency::cpu.inst   1085371500                       # number of ReadReq MSHR miss cycles
system.cpu.icache.ReadReq_mshr_miss_latency::total   1085371500                       # number of ReadReq MSHR miss cycles
system.cpu.icache.demand_mshr_miss_latency::cpu.inst   1085371500                       # number of demand (read+write) MSHR miss cycles
system.cpu.icache.demand_mshr_miss_latency::total   1085371500                       # number of demand (read+write) MSHR miss cycles
system.cpu.icache.overall_mshr_miss_latency::cpu.inst   1085371500                       # number of overall MSHR miss cycles
system.cpu.icache.overall_mshr_miss_latency::total   1085371500                       # number of overall MSHR miss cycles
system.cpu.icache.ReadReq_mshr_miss_rate::cpu.inst     0.000127                       # mshr miss rate for ReadReq accesses
system.cpu.icache.ReadReq_mshr_miss_rate::total     0.000127                       # mshr miss rate for ReadReq accesses
system.cpu.icache.demand_mshr_miss_rate::cpu.inst     0.000127                       # mshr miss rate for demand accesses
system.cpu.icache.demand_mshr_miss_rate::total     0.000127                       # mshr miss rate for demand accesses
system.cpu.icache.overall_mshr_miss_rate::cpu.inst     0.000127                       # mshr miss rate for overall accesses
system.cpu.icache.overall_mshr_miss_rate::total     0.000127                       # mshr miss rate for overall accesses
system.cpu.icache.ReadReq_avg_mshr_miss_latency::cpu.inst 12632.937986                       # average ReadReq mshr miss latency
system.cpu.icache.ReadReq_avg_mshr_miss_latency::total 12632.937986                       # average ReadReq mshr miss latency
system.cpu.icache.demand_avg_mshr_miss_latency::cpu.inst 12632.937986                       # average overall mshr miss latency
system.cpu.icache.demand_avg_mshr_miss_latency::total 12632.937986                       # average overall mshr miss latency
system.cpu.icache.overall_avg_mshr_miss_latency::cpu.inst 12632.937986                       # average overall mshr miss latency
system.cpu.icache.overall_avg_mshr_miss_latency::total 12632.937986                       # average overall mshr miss latency
system.cpu.itb_walker_cache.tags.pwrStateResidencyTicks::UNDEFINED 1689095126500                       # Cumulative time (in ticks) in various power states
system.cpu.itb_walker_cache.tags.replacements            0                       # number of replacements
system.cpu.itb_walker_cache.tags.tagsinuse            0                       # Cycle average of tags in use
system.cpu.itb_walker_cache.tags.total_refs            0                       # Total number of references to valid blocks.
system.cpu.itb_walker_cache.tags.sampled_refs            0                       # Sample count of references to valid blocks.
system.cpu.itb_walker_cache.tags.avg_refs          nan                       # Average number of references to valid blocks.
system.cpu.itb_walker_cache.tags.warmup_cycle            0                       # Cycle when the warmup percentage was hit.
system.cpu.itb_walker_cache.tags.tag_accesses            0                       # Number of tag accesses
system.cpu.itb_walker_cache.tags.data_accesses            0                       # Number of data accesses
system.cpu.itb_walker_cache.pwrStateResidencyTicks::UNDEFINED 1689095126500                       # Cumulative time (in ticks) in various power states
system.cpu.itb_walker_cache.blocked_cycles::no_mshrs            0                       # number of cycles access was blocked
system.cpu.itb_walker_cache.blocked_cycles::no_targets            0                       # number of cycles access was blocked
system.cpu.itb_walker_cache.blocked::no_mshrs            0                       # number of cycles access was blocked
system.cpu.itb_walker_cache.blocked::no_targets            0                       # number of cycles access was blocked
system.cpu.itb_walker_cache.avg_blocked_cycles::no_mshrs          nan                       # average number of cycles each access was blocked
system.cpu.itb_walker_cache.avg_blocked_cycles::no_targets          nan                       # average number of cycles each access was blocked
system.l2.tags.pwrStateResidencyTicks::UNDEFINED 1689095126500                       # Cumulative time (in ticks) in various power states
system.l2.tags.replacements                   6244902                       # number of replacements
system.l2.tags.tagsinuse                 16341.691878                       # Cycle average of tags in use
system.l2.tags.total_refs                    18910546                       # Total number of references to valid blocks.
system.l2.tags.sampled_refs                   6261286                       # Sample count of references to valid blocks.
system.l2.tags.avg_refs                      3.020234                       # Average number of references to valid blocks.
system.l2.tags.warmup_cycle                9788890000                       # Cycle when the warmup percentage was hit.
system.l2.tags.occ_blocks::writebacks       13.957482                       # Average occupied blocks per requestor
system.l2.tags.occ_blocks::cpu.inst          3.663905                       # Average occupied blocks per requestor
system.l2.tags.occ_blocks::cpu.data      16324.070491                       # Average occupied blocks per requestor
system.l2.tags.occ_percent::writebacks       0.000852                       # Average percentage of cache occupancy
system.l2.tags.occ_percent::cpu.inst         0.000224                       # Average percentage of cache occupancy
system.l2.tags.occ_percent::cpu.data         0.996342                       # Average percentage of cache occupancy
system.l2.tags.occ_percent::total            0.997418                       # Average percentage of cache occupancy
system.l2.tags.occ_task_id_blocks::1024         16384                       # Occupied blocks per task id
system.l2.tags.age_task_id_blocks_1024::1          363                       # Occupied blocks per task id
system.l2.tags.age_task_id_blocks_1024::2         3347                       # Occupied blocks per task id
system.l2.tags.age_task_id_blocks_1024::3         9167                       # Occupied blocks per task id
system.l2.tags.age_task_id_blocks_1024::4         3507                       # Occupied blocks per task id
system.l2.tags.occ_task_id_percent::1024            1                       # Percentage of cache occupancy per task id
system.l2.tags.tag_accesses                 106950418                       # Number of tag accesses
system.l2.tags.data_accesses                106950418                       # Number of data accesses
system.l2.pwrStateResidencyTicks::UNDEFINED 1689095126500                       # Cumulative time (in ticks) in various power states
system.l2.WritebackDirty_hits::writebacks      3601711                       # number of WritebackDirty hits
system.l2.WritebackDirty_hits::total          3601711                       # number of WritebackDirty hits
system.l2.WritebackClean_hits::writebacks        85659                       # number of WritebackClean hits
system.l2.WritebackClean_hits::total            85659                       # number of WritebackClean hits
system.l2.ReadExReq_hits::cpu.data             208243                       # number of ReadExReq hits
system.l2.ReadExReq_hits::total                208243                       # number of ReadExReq hits
system.l2.ReadCleanReq_hits::cpu.inst           85223                       # number of ReadCleanReq hits
system.l2.ReadCleanReq_hits::total              85223                       # number of ReadCleanReq hits
system.l2.ReadSharedReq_hits::cpu.data        6035261                       # number of ReadSharedReq hits
system.l2.ReadSharedReq_hits::total           6035261                       # number of ReadSharedReq hits
system.l2.demand_hits::cpu.inst                 85223                       # number of demand (read+write) hits
system.l2.demand_hits::cpu.data               6243504                       # number of demand (read+write) hits
system.l2.demand_hits::total                  6328727                       # number of demand (read+write) hits
system.l2.overall_hits::cpu.inst                85223                       # number of overall hits
system.l2.overall_hits::cpu.data              6243504                       # number of overall hits
system.l2.overall_hits::total                 6328727                       # number of overall hits
system.l2.ReadExReq_misses::cpu.data           208188                       # number of ReadExReq misses
system.l2.ReadExReq_misses::total              208188                       # number of ReadExReq misses
system.l2.ReadCleanReq_misses::cpu.inst           693                       # number of ReadCleanReq misses
system.l2.ReadCleanReq_misses::total              693                       # number of ReadCleanReq misses
system.l2.ReadSharedReq_misses::cpu.data      6049174                       # number of ReadSharedReq misses
system.l2.ReadSharedReq_misses::total         6049174                       # number of ReadSharedReq misses
system.l2.demand_misses::cpu.inst                 693                       # number of demand (read+write) misses
system.l2.demand_misses::cpu.data             6257362                       # number of demand (read+write) misses
system.l2.demand_misses::total                6258055                       # number of demand (read+write) misses
system.l2.overall_misses::cpu.inst                693                       # number of overall misses
system.l2.overall_misses::cpu.data            6257362                       # number of overall misses
system.l2.overall_misses::total               6258055                       # number of overall misses
system.l2.ReadExReq_miss_latency::cpu.data  20493604500                       # number of ReadExReq miss cycles
system.l2.ReadExReq_miss_latency::total   20493604500                       # number of ReadExReq miss cycles
system.l2.ReadCleanReq_miss_latency::cpu.inst     61647500                       # number of ReadCleanReq miss cycles
system.l2.ReadCleanReq_miss_latency::total     61647500                       # number of ReadCleanReq miss cycles
system.l2.ReadSharedReq_miss_latency::cpu.data 612119442000                       # number of ReadSharedReq miss cycles
system.l2.ReadSharedReq_miss_latency::total 612119442000                       # number of ReadSharedReq miss cycles
system.l2.demand_miss_latency::cpu.inst      61647500                       # number of demand (read+write) miss cycles
system.l2.demand_miss_latency::cpu.data  632613046500                       # number of demand (read+write) miss cycles
system.l2.demand_miss_latency::total     632674694000                       # number of demand (read+write) miss cycles
system.l2.overall_miss_latency::cpu.inst     61647500                       # number of overall miss cycles
system.l2.overall_miss_latency::cpu.data 632613046500                       # number of overall miss cycles
system.l2.overall_miss_latency::total    632674694000                       # number of overall miss cycles
system.l2.WritebackDirty_accesses::writebacks      3601711                       # number of WritebackDirty accesses(hits+misses)
system.l2.WritebackDirty_accesses::total      3601711                       # number of WritebackDirty accesses(hits+misses)
system.l2.WritebackClean_accesses::writebacks        85659                       # number of WritebackClean accesses(hits+misses)
system.l2.WritebackClean_accesses::total        85659                       # number of WritebackClean accesses(hits+misses)
system.l2.ReadExReq_accesses::cpu.data         416431                       # number of ReadExReq accesses(hits+misses)
system.l2.ReadExReq_accesses::total            416431                       # number of ReadExReq accesses(hits+misses)
system.l2.ReadCleanReq_accesses::cpu.inst        85916                       # number of ReadCleanReq accesses(hits+misses)
system.l2.ReadCleanReq_accesses::total          85916                       # number of ReadCleanReq accesses(hits+misses)
system.l2.ReadSharedReq_accesses::cpu.data     12084435                       # number of ReadSharedReq accesses(hits+misses)
system.l2.ReadSharedReq_accesses::total      12084435                       # number of ReadSharedReq accesses(hits+misses)
system.l2.demand_accesses::cpu.inst             85916                       # number of demand (read+write) accesses
system.l2.demand_accesses::cpu.data          12500866                       # number of demand (read+write) accesses
system.l2.demand_accesses::total             12586782                       # number of demand (read+write) accesses
system.l2.overall_accesses::cpu.inst            85916                       # number of overall (read+write) accesses
system.l2.overall_accesses::cpu.data         12500866                       # number of overall (read+write) accesses
system.l2.overall_accesses::total            12586782                       # number of overall (read+write) accesses
system.l2.ReadExReq_miss_rate::cpu.data      0.499934                       # miss rate for ReadExReq accesses
system.l2.ReadExReq_miss_rate::total         0.499934                       # miss rate for ReadExReq accesses
system.l2.ReadCleanReq_miss_rate::cpu.inst     0.008066                       # miss rate for ReadCleanReq accesses
system.l2.ReadCleanReq_miss_rate::total      0.008066                       # miss rate for ReadCleanReq accesses
system.l2.ReadSharedReq_miss_rate::cpu.data     0.500576                       # miss rate for ReadSharedReq accesses
system.l2.ReadSharedReq_miss_rate::total     0.500576                       # miss rate for ReadSharedReq accesses
system.l2.demand_miss_rate::cpu.inst         0.008066                       # miss rate for demand accesses
system.l2.demand_miss_rate::cpu.data         0.500554                       # miss rate for demand accesses
system.l2.demand_miss_rate::total            0.497193                       # miss rate for demand accesses
system.l2.overall_miss_rate::cpu.inst        0.008066                       # miss rate for overall accesses
system.l2.overall_miss_rate::cpu.data        0.500554                       # miss rate for overall accesses
system.l2.overall_miss_rate::total           0.497193                       # miss rate for overall accesses
system.l2.ReadExReq_avg_miss_latency::cpu.data 98437.971929                       # average ReadExReq miss latency
system.l2.ReadExReq_avg_miss_latency::total 98437.971929                       # average ReadExReq miss latency
system.l2.ReadCleanReq_avg_miss_latency::cpu.inst 88957.431457                       # average ReadCleanReq miss latency
system.l2.ReadCleanReq_avg_miss_latency::total 88957.431457                       # average ReadCleanReq miss latency
system.l2.ReadSharedReq_avg_miss_latency::cpu.data 101190.582714                       # average ReadSharedReq miss latency
system.l2.ReadSharedReq_avg_miss_latency::total 101190.582714                       # average ReadSharedReq miss latency
system.l2.demand_avg_miss_latency::cpu.inst 88957.431457                       # average overall miss latency
system.l2.demand_avg_miss_latency::cpu.data 101099.000905                       # average overall miss latency
system.l2.demand_avg_miss_latency::total 101097.656380                       # average overall miss latency
system.l2.overall_avg_miss_latency::cpu.inst 88957.431457                       # average overall miss latency
system.l2.overall_avg_miss_latency::cpu.data 101099.000905                       # average overall miss latency
system.l2.overall_avg_miss_latency::total 101097.656380                       # average overall miss latency
system.l2.blocked_cycles::no_mshrs                  0                       # number of cycles access was blocked
system.l2.blocked_cycles::no_targets                0                       # number of cycles access was blocked
system.l2.blocked::no_mshrs                         0                       # number of cycles access was blocked
system.l2.blocked::no_targets                       0                       # number of cycles access was blocked
system.l2.avg_blocked_cycles::no_mshrs            nan                       # average number of cycles each access was blocked
system.l2.avg_blocked_cycles::no_targets          nan                       # average number of cycles each access was blocked
system.l2.writebacks::writebacks              1099710                       # number of writebacks
system.l2.writebacks::total                   1099710                       # number of writebacks
system.l2.CleanEvict_mshr_misses::writebacks          451                       # number of CleanEvict MSHR misses
system.l2.CleanEvict_mshr_misses::total           451                       # number of CleanEvict MSHR misses
system.l2.ReadExReq_mshr_misses::cpu.data       208188                       # number of ReadExReq MSHR misses
system.l2.ReadExReq_mshr_misses::total         208188                       # number of ReadExReq MSHR misses
system.l2.ReadCleanReq_mshr_misses::cpu.inst          693                       # number of ReadCleanReq MSHR misses
system.l2.ReadCleanReq_mshr_misses::total          693                       # number of ReadCleanReq MSHR misses
system.l2.ReadSharedReq_mshr_misses::cpu.data      6049174                       # number of ReadSharedReq MSHR misses
system.l2.ReadSharedReq_mshr_misses::total      6049174                       # number of ReadSharedReq MSHR misses
system.l2.demand_mshr_misses::cpu.inst            693                       # number of demand (read+write) MSHR misses
system.l2.demand_mshr_misses::cpu.data        6257362                       # number of demand (read+write) MSHR misses
system.l2.demand_mshr_misses::total           6258055                       # number of demand (read+write) MSHR misses
system.l2.overall_mshr_misses::cpu.inst           693                       # number of overall MSHR misses
system.l2.overall_mshr_misses::cpu.data       6257362                       # number of overall MSHR misses
system.l2.overall_mshr_misses::total          6258055                       # number of overall MSHR misses
system.l2.ReadExReq_mshr_miss_latency::cpu.data  18411724500                       # number of ReadExReq MSHR miss cycles
system.l2.ReadExReq_mshr_miss_latency::total  18411724500                       # number of ReadExReq MSHR miss cycles
system.l2.ReadCleanReq_mshr_miss_latency::cpu.inst     54717500                       # number of ReadCleanReq MSHR miss cycles
system.l2.ReadCleanReq_mshr_miss_latency::total     54717500                       # number of ReadCleanReq MSHR miss cycles
system.l2.ReadSharedReq_mshr_miss_latency::cpu.data 551627702000                       # number of ReadSharedReq MSHR miss cycles
system.l2.ReadSharedReq_mshr_miss_latency::total 551627702000                       # number of ReadSharedReq MSHR miss cycles
system.l2.demand_mshr_miss_latency::cpu.inst     54717500                       # number of demand (read+write) MSHR miss cycles
system.l2.demand_mshr_miss_latency::cpu.data 570039426500                       # number of demand (read+write) MSHR miss cycles
system.l2.demand_mshr_miss_latency::total 570094144000                       # number of demand (read+write) MSHR miss cycles
system.l2.overall_mshr_miss_latency::cpu.inst     54717500                       # number of overall MSHR miss cycles
system.l2.overall_mshr_miss_latency::cpu.data 570039426500                       # number of overall MSHR miss cycles
system.l2.overall_mshr_miss_latency::total 570094144000                       # number of overall MSHR miss cycles
system.l2.CleanEvict_mshr_miss_rate::writebacks          inf                       # mshr miss rate for CleanEvict accesses
system.l2.CleanEvict_mshr_miss_rate::total          inf                       # mshr miss rate for CleanEvict accesses
system.l2.ReadExReq_mshr_miss_rate::cpu.data     0.499934                       # mshr miss rate for ReadExReq accesses
system.l2.ReadExReq_mshr_miss_rate::total     0.499934                       # mshr miss rate for ReadExReq accesses
system.l2.ReadCleanReq_mshr_miss_rate::cpu.inst     0.008066                       # mshr miss rate for ReadCleanReq accesses
system.l2.ReadCleanReq_mshr_miss_rate::total     0.008066                       # mshr miss rate for ReadCleanReq accesses
system.l2.ReadSharedReq_mshr_miss_rate::cpu.data     0.500576                       # mshr miss rate for ReadSharedReq accesses
system.l2.ReadSharedReq_mshr_miss_rate::total     0.500576                       # mshr miss rate for ReadSharedReq accesses
system.l2.demand_mshr_miss_rate::cpu.inst     0.008066                       # mshr miss rate for demand accesses
system.l2.demand_mshr_miss_rate::cpu.data     0.500554                       # mshr miss rate for demand accesses
system.l2.demand_mshr_miss_rate::total       0.497193                       # mshr miss rate for demand accesses
system.l2.overall_mshr_miss_rate::cpu.inst     0.008066                       # mshr miss rate for overall accesses
system.l2.overall_mshr_miss_rate::cpu.data     0.500554                       # mshr miss rate for overall accesses
system.l2.overall_mshr_miss_rate::total      0.497193                       # mshr miss rate for overall accesses
system.l2.ReadExReq_avg_mshr_miss_latency::cpu.data 88437.971929                       # average ReadExReq mshr miss latency
system.l2.ReadExReq_avg_mshr_miss_latency::total 88437.971929                       # average ReadExReq mshr miss latency
system.l2.ReadCleanReq_avg_mshr_miss_latency::cpu.inst 78957.431457                       # average ReadCleanReq mshr miss latency
system.l2.ReadCleanReq_avg_mshr_miss_latency::total 78957.431457                       # average ReadCleanReq mshr miss latency
system.l2.ReadSharedReq_avg_mshr_miss_latency::cpu.data 91190.582714                       # average ReadSharedReq mshr miss latency
system.l2.ReadSharedReq_avg_mshr_miss_latency::total 91190.582714                       # average ReadSharedReq mshr miss latency
system.l2.demand_avg_mshr_miss_latency::cpu.inst 78957.431457                       # average overall mshr miss latency
system.l2.demand_avg_mshr_miss_latency::cpu.data 91099.000905                       # average overall mshr miss latency
system.l2.demand_avg_mshr_miss_latency::total 91097.656380                       # average overall mshr miss latency
system.l2.overall_avg_mshr_miss_latency::cpu.inst 78957.431457                       # average overall mshr miss latency
system.l2.overall_avg_mshr_miss_latency::cpu.data 91099.000905                       # average overall mshr miss latency
system.l2.overall_avg_mshr_miss_latency::total 91097.656380                       # average overall mshr miss latency
system.membus.snoop_filter.tot_requests      12499467                       # Total number of requests made to the snoop filter.
system.membus.snoop_filter.hit_single_requests      6241412                       # Number of requests hitting in the snoop filter with a single holder of the requested data.
system.membus.snoop_filter.hit_multi_requests            0                       # Number of requests hitting in the snoop filter with multiple (>1) holders of the requested data.
system.membus.snoop_filter.tot_snoops               0                       # Total number of snoops made to the snoop filter.
system.membus.snoop_filter.hit_single_snoops            0                       # Number of snoops hitting in the snoop filter with a single holder of the requested data.
system.membus.snoop_filter.hit_multi_snoops            0                       # Number of snoops hitting in the snoop filter with multiple (>1) holders of the requested data.
system.membus.pwrStateResidencyTicks::UNDEFINED 1689095126500                       # Cumulative time (in ticks) in various power states
system.membus.trans_dist::ReadResp            6049867                       # Transaction distribution
system.membus.trans_dist::WritebackDirty      1099710                       # Transaction distribution
system.membus.trans_dist::CleanEvict          5141702                       # Transaction distribution
system.membus.trans_dist::ReadExReq            208188                       # Transaction distribution
system.membus.trans_dist::ReadExResp           208188                       # Transaction distribution
system.membus.trans_dist::ReadSharedReq       6049867                       # Transaction distribution
system.membus.pkt_count_system.l2.mem_side::system.mem_ctrls.port     18757522                       # Packet count per connected master and slave (bytes)
system.membus.pkt_count_system.l2.mem_side::total     18757522                       # Packet count per connected master and slave (bytes)
system.membus.pkt_count::total               18757522                       # Packet count per connected master and slave (bytes)
system.membus.pkt_size_system.l2.mem_side::system.mem_ctrls.port    470896960                       # Cumulative packet size per connected master and slave (bytes)
system.membus.pkt_size_system.l2.mem_side::total    470896960                       # Cumulative packet size per connected master and slave (bytes)
system.membus.pkt_size::total               470896960                       # Cumulative packet size per connected master and slave (bytes)
system.membus.snoops                                0                       # Total snoops (count)
system.membus.snoopTraffic                          0                       # Total snoop traffic (bytes)
system.membus.snoop_fanout::samples           6258055                       # Request fanout histogram
system.membus.snoop_fanout::mean                    0                       # Request fanout histogram
system.membus.snoop_fanout::stdev                   0                       # Request fanout histogram
system.membus.snoop_fanout::underflows              0      0.00%      0.00% # Request fanout histogram
system.membus.snoop_fanout::0                 6258055    100.00%    100.00% # Request fanout histogram
system.membus.snoop_fanout::1                       0      0.00%    100.00% # Request fanout histogram
system.membus.snoop_fanout::overflows               0      0.00%    100.00% # Request fanout histogram
system.membus.snoop_fanout::min_value               0                       # Request fanout histogram
system.membus.snoop_fanout::max_value               0                       # Request fanout histogram
system.membus.snoop_fanout::total             6258055                       # Request fanout histogram
system.membus.reqLayer2.occupancy         16905382500                       # Layer occupancy (ticks)
system.membus.reqLayer2.utilization               1.0                       # Layer utilization (%)
system.membus.respLayer1.occupancy        34881114250                       # Layer occupancy (ticks)
system.membus.respLayer1.utilization              2.1                       # Layer utilization (%)
system.tol2bus.snoop_filter.tot_requests     25172284                       # Total number of requests made to the snoop filter.
system.tol2bus.snoop_filter.hit_single_requests     12585502                       # Number of requests hitting in the snoop filter with a single holder of the requested data.
system.tol2bus.snoop_filter.hit_multi_requests            1                       # Number of requests hitting in the snoop filter with multiple (>1) holders of the requested data.
system.tol2bus.snoop_filter.tot_snoops           3941                       # Total number of snoops made to the snoop filter.
system.tol2bus.snoop_filter.hit_single_snoops         3941                       # Number of snoops hitting in the snoop filter with a single holder of the requested data.
system.tol2bus.snoop_filter.hit_multi_snoops            0                       # Number of snoops hitting in the snoop filter with multiple (>1) holders of the requested data.
system.tol2bus.pwrStateResidencyTicks::UNDEFINED 1689095126500                       # Cumulative time (in ticks) in various power states
system.tol2bus.trans_dist::ReadResp          12170351                       # Transaction distribution
system.tol2bus.trans_dist::WritebackDirty      4701421                       # Transaction distribution
system.tol2bus.trans_dist::WritebackClean        85660                       # Transaction distribution
system.tol2bus.trans_dist::CleanEvict        14043323                       # Transaction distribution
system.tol2bus.trans_dist::ReadExReq           416431                       # Transaction distribution
system.tol2bus.trans_dist::ReadExResp          416431                       # Transaction distribution
system.tol2bus.trans_dist::ReadCleanReq         85916                       # Transaction distribution
system.tol2bus.trans_dist::ReadSharedReq     12084435                       # Transaction distribution
system.tol2bus.pkt_count_system.cpu.icache.mem_side::system.l2.cpu_side       257492                       # Packet count per connected master and slave (bytes)
system.tol2bus.pkt_count_system.cpu.dcache.mem_side::system.l2.cpu_side     37501574                       # Packet count per connected master and slave (bytes)
system.tol2bus.pkt_count::total              37759066                       # Packet count per connected master and slave (bytes)
system.tol2bus.pkt_size_system.cpu.icache.mem_side::system.l2.cpu_side     10980864                       # Cumulative packet size per connected master and slave (bytes)
system.tol2bus.pkt_size_system.cpu.dcache.mem_side::system.l2.cpu_side   1030564928                       # Cumulative packet size per connected master and slave (bytes)
system.tol2bus.pkt_size::total             1041545792                       # Cumulative packet size per connected master and slave (bytes)
system.tol2bus.snoops                         6244902                       # Total snoops (count)
system.tol2bus.snoopTraffic                  70381440                       # Total snoop traffic (bytes)
system.tol2bus.snoop_fanout::samples         18831684                       # Request fanout histogram
system.tol2bus.snoop_fanout::mean            0.000209                       # Request fanout histogram
system.tol2bus.snoop_fanout::stdev           0.014467                       # Request fanout histogram
system.tol2bus.snoop_fanout::underflows             0      0.00%      0.00% # Request fanout histogram
system.tol2bus.snoop_fanout::0               18827742     99.98%     99.98% # Request fanout histogram
system.tol2bus.snoop_fanout::1                   3942      0.02%    100.00% # Request fanout histogram
system.tol2bus.snoop_fanout::2                      0      0.00%    100.00% # Request fanout histogram
system.tol2bus.snoop_fanout::3                      0      0.00%    100.00% # Request fanout histogram
system.tol2bus.snoop_fanout::4                      0      0.00%    100.00% # Request fanout histogram
system.tol2bus.snoop_fanout::overflows              0      0.00%    100.00% # Request fanout histogram
system.tol2bus.snoop_fanout::min_value              0                       # Request fanout histogram
system.tol2bus.snoop_fanout::max_value              1                       # Request fanout histogram
system.tol2bus.snoop_fanout::total           18831684                       # Request fanout histogram
system.tol2bus.reqLayer0.occupancy        16273513000                       # Layer occupancy (ticks)
system.tol2bus.reqLayer0.utilization              1.0                       # Layer utilization (%)
system.tol2bus.respLayer0.occupancy         128874000                       # Layer occupancy (ticks)
system.tol2bus.respLayer0.utilization             0.0                       # Layer utilization (%)
system.tol2bus.respLayer1.occupancy       18751299000                       # Layer occupancy (ticks)
system.tol2bus.respLayer1.utilization             1.1                       # Layer utilization (%)

---------- End Simulation Statistics   ----------
