
---------- Begin Simulation Statistics ----------
sim_seconds                                  2.416251                       # Number of seconds simulated
sim_ticks                                2416251098500                       # Number of ticks simulated
final_tick                               2416251098500                       # Number of ticks from beginning of simulation (restored from checkpoints and never reset)
sim_freq                                 1000000000000                       # Frequency of simulated ticks
host_inst_rate                                 467605                       # Simulator instruction rate (inst/s)
host_op_rate                                   770021                       # Simulator op (including micro ops) rate (op/s)
host_tick_rate                             2259703747                       # Simulator tick rate (ticks/s)
host_mem_usage                                 669880                       # Number of bytes of host memory used
host_seconds                                  1069.28                       # Real time elapsed on the host
sim_insts                                   500000000                       # Number of instructions simulated
sim_ops                                     823366692                       # Number of ops (including micro ops) simulated
system.voltage_domain.voltage                       1                       # Voltage in Volts
system.clk_domain.clock                          1000                       # Clock period in ticks
system.mem_ctrls.pwrStateResidencyTicks::UNDEFINED 2416251098500                       # Cumulative time (in ticks) in various power states
system.mem_ctrls.bytes_read::cpu.inst          214080                       # Number of bytes read from this memory
system.mem_ctrls.bytes_read::cpu.data       533706528                       # Number of bytes read from this memory
system.mem_ctrls.bytes_read::total          533920608                       # Number of bytes read from this memory
system.mem_ctrls.bytes_inst_read::cpu.inst       214080                       # Number of instructions bytes read from this memory
system.mem_ctrls.bytes_inst_read::total        214080                       # Number of instructions bytes read from this memory
system.mem_ctrls.bytes_written::writebacks    532118880                       # Number of bytes written to this memory
system.mem_ctrls.bytes_written::total       532118880                       # Number of bytes written to this memory
system.mem_ctrls.num_reads::cpu.inst             6690                       # Number of read requests responded to by this memory
system.mem_ctrls.num_reads::cpu.data         16678329                       # Number of read requests responded to by this memory
system.mem_ctrls.num_reads::total            16685019                       # Number of read requests responded to by this memory
system.mem_ctrls.num_writes::writebacks      16628715                       # Number of write requests responded to by this memory
system.mem_ctrls.num_writes::total           16628715                       # Number of write requests responded to by this memory
system.mem_ctrls.bw_read::cpu.inst              88600                       # Total read bandwidth from this memory (bytes/s)
system.mem_ctrls.bw_read::cpu.data          220882063                       # Total read bandwidth from this memory (bytes/s)
system.mem_ctrls.bw_read::total             220970663                       # Total read bandwidth from this memory (bytes/s)
system.mem_ctrls.bw_inst_read::cpu.inst         88600                       # Instruction read bandwidth from this memory (bytes/s)
system.mem_ctrls.bw_inst_read::total            88600                       # Instruction read bandwidth from this memory (bytes/s)
system.mem_ctrls.bw_write::writebacks       220224992                       # Write bandwidth from this memory (bytes/s)
system.mem_ctrls.bw_write::total            220224992                       # Write bandwidth from this memory (bytes/s)
system.mem_ctrls.bw_total::writebacks       220224992                       # Total bandwidth to/from this memory (bytes/s)
system.mem_ctrls.bw_total::cpu.inst             88600                       # Total bandwidth to/from this memory (bytes/s)
system.mem_ctrls.bw_total::cpu.data         220882063                       # Total bandwidth to/from this memory (bytes/s)
system.mem_ctrls.bw_total::total            441195656                       # Total bandwidth to/from this memory (bytes/s)
system.mem_ctrls.readReqs                    16685019                       # Number of read requests accepted
system.mem_ctrls.writeReqs                   16628715                       # Number of write requests accepted
system.mem_ctrls.readBursts                  16685019                       # Number of DRAM read bursts, including those serviced by the write queue
system.mem_ctrls.writeBursts                 16628715                       # Number of DRAM write bursts, including those merged in the write queue
system.mem_ctrls.bytesReadDRAM             1067814144                       # Total number of bytes read from DRAM
system.mem_ctrls.bytesReadWrQ                   27072                       # Total number of bytes read from write queue
system.mem_ctrls.bytesWritten               534708544                       # Total number of bytes written to DRAM
system.mem_ctrls.bytesReadSys               533920608                       # Total read bytes from the system interface side
system.mem_ctrls.bytesWrittenSys            532118880                       # Total written bytes from the system interface side
system.mem_ctrls.servicedByWrQ                    423                       # Number of DRAM read bursts serviced by the write queue
system.mem_ctrls.mergedWrBursts               8273862                       # Number of DRAM write bursts merged with an existing one
system.mem_ctrls.neitherReadNorWriteReqs            0                       # Number of requests that are neither read nor write
system.mem_ctrls.perBankRdBursts::0           1041953                       # Per bank write bursts
system.mem_ctrls.perBankRdBursts::1           1041662                       # Per bank write bursts
system.mem_ctrls.perBankRdBursts::2           1042056                       # Per bank write bursts
system.mem_ctrls.perBankRdBursts::3           1043459                       # Per bank write bursts
system.mem_ctrls.perBankRdBursts::4           1045956                       # Per bank write bursts
system.mem_ctrls.perBankRdBursts::5           1043012                       # Per bank write bursts
system.mem_ctrls.perBankRdBursts::6           1042329                       # Per bank write bursts
system.mem_ctrls.perBankRdBursts::7           1042575                       # Per bank write bursts
system.mem_ctrls.perBankRdBursts::8           1041470                       # Per bank write bursts
system.mem_ctrls.perBankRdBursts::9           1042130                       # Per bank write bursts
system.mem_ctrls.perBankRdBursts::10          1043217                       # Per bank write bursts
system.mem_ctrls.perBankRdBursts::11          1043641                       # Per bank write bursts
system.mem_ctrls.perBankRdBursts::12          1043227                       # Per bank write bursts
system.mem_ctrls.perBankRdBursts::13          1042710                       # Per bank write bursts
system.mem_ctrls.perBankRdBursts::14          1042509                       # Per bank write bursts
system.mem_ctrls.perBankRdBursts::15          1042690                       # Per bank write bursts
system.mem_ctrls.perBankWrBursts::0            521938                       # Per bank write bursts
system.mem_ctrls.perBankWrBursts::1            521743                       # Per bank write bursts
system.mem_ctrls.perBankWrBursts::2            522013                       # Per bank write bursts
system.mem_ctrls.perBankWrBursts::3            522908                       # Per bank write bursts
system.mem_ctrls.perBankWrBursts::4            522713                       # Per bank write bursts
system.mem_ctrls.perBankWrBursts::5            522456                       # Per bank write bursts
system.mem_ctrls.perBankWrBursts::6            521984                       # Per bank write bursts
system.mem_ctrls.perBankWrBursts::7            522237                       # Per bank write bursts
system.mem_ctrls.perBankWrBursts::8            521740                       # Per bank write bursts
system.mem_ctrls.perBankWrBursts::9            522010                       # Per bank write bursts
system.mem_ctrls.perBankWrBursts::10           522108                       # Per bank write bursts
system.mem_ctrls.perBankWrBursts::11           522196                       # Per bank write bursts
system.mem_ctrls.perBankWrBursts::12           522242                       # Per bank write bursts
system.mem_ctrls.perBankWrBursts::13           522363                       # Per bank write bursts
system.mem_ctrls.perBankWrBursts::14           522100                       # Per bank write bursts
system.mem_ctrls.perBankWrBursts::15           522070                       # Per bank write bursts
system.mem_ctrls.numRdRetry                         0                       # Number of times read queue was full causing retry
system.mem_ctrls.numWrRetry                         0                       # Number of times write queue was full causing retry
system.mem_ctrls.totGap                  2416237707500                       # Total gap between requests
system.mem_ctrls.readPktSize::0                     0                       # Read request sizes (log2)
system.mem_ctrls.readPktSize::1                     0                       # Read request sizes (log2)
system.mem_ctrls.readPktSize::2                     0                       # Read request sizes (log2)
system.mem_ctrls.readPktSize::3                     0                       # Read request sizes (log2)
system.mem_ctrls.readPktSize::4                     0                       # Read request sizes (log2)
system.mem_ctrls.readPktSize::5              16685019                       # Read request sizes (log2)
system.mem_ctrls.readPktSize::6                     0                       # Read request sizes (log2)
system.mem_ctrls.writePktSize::0                    0                       # Write request sizes (log2)
system.mem_ctrls.writePktSize::1                    0                       # Write request sizes (log2)
system.mem_ctrls.writePktSize::2                    0                       # Write request sizes (log2)
system.mem_ctrls.writePktSize::3                    0                       # Write request sizes (log2)
system.mem_ctrls.writePktSize::4                    0                       # Write request sizes (log2)
system.mem_ctrls.writePktSize::5             16628715                       # Write request sizes (log2)
system.mem_ctrls.writePktSize::6                    0                       # Write request sizes (log2)
system.mem_ctrls.rdQLenPdf::0                16684595                       # What read queue length does an incoming req see
system.mem_ctrls.rdQLenPdf::1                       1                       # What read queue length does an incoming req see
system.mem_ctrls.rdQLenPdf::2                       0                       # What read queue length does an incoming req see
system.mem_ctrls.rdQLenPdf::3                       0                       # What read queue length does an incoming req see
system.mem_ctrls.rdQLenPdf::4                       0                       # What read queue length does an incoming req see
system.mem_ctrls.rdQLenPdf::5                       0                       # What read queue length does an incoming req see
system.mem_ctrls.rdQLenPdf::6                       0                       # What read queue length does an incoming req see
system.mem_ctrls.rdQLenPdf::7                       0                       # What read queue length does an incoming req see
system.mem_ctrls.rdQLenPdf::8                       0                       # What read queue length does an incoming req see
system.mem_ctrls.rdQLenPdf::9                       0                       # What read queue length does an incoming req see
system.mem_ctrls.rdQLenPdf::10                      0                       # What read queue length does an incoming req see
system.mem_ctrls.rdQLenPdf::11                      0                       # What read queue length does an incoming req see
system.mem_ctrls.rdQLenPdf::12                      0                       # What read queue length does an incoming req see
system.mem_ctrls.rdQLenPdf::13                      0                       # What read queue length does an incoming req see
system.mem_ctrls.rdQLenPdf::14                      0                       # What read queue length does an incoming req see
system.mem_ctrls.rdQLenPdf::15                      0                       # What read queue length does an incoming req see
system.mem_ctrls.rdQLenPdf::16                      0                       # What read queue length does an incoming req see
system.mem_ctrls.rdQLenPdf::17                      0                       # What read queue length does an incoming req see
system.mem_ctrls.rdQLenPdf::18                      0                       # What read queue length does an incoming req see
system.mem_ctrls.rdQLenPdf::19                      0                       # What read queue length does an incoming req see
system.mem_ctrls.rdQLenPdf::20                      0                       # What read queue length does an incoming req see
system.mem_ctrls.rdQLenPdf::21                      0                       # What read queue length does an incoming req see
system.mem_ctrls.rdQLenPdf::22                      0                       # What read queue length does an incoming req see
system.mem_ctrls.rdQLenPdf::23                      0                       # What read queue length does an incoming req see
system.mem_ctrls.rdQLenPdf::24                      0                       # What read queue length does an incoming req see
system.mem_ctrls.rdQLenPdf::25                      0                       # What read queue length does an incoming req see
system.mem_ctrls.rdQLenPdf::26                      0                       # What read queue length does an incoming req see
system.mem_ctrls.rdQLenPdf::27                      0                       # What read queue length does an incoming req see
system.mem_ctrls.rdQLenPdf::28                      0                       # What read queue length does an incoming req see
system.mem_ctrls.rdQLenPdf::29                      0                       # What read queue length does an incoming req see
system.mem_ctrls.rdQLenPdf::30                      0                       # What read queue length does an incoming req see
system.mem_ctrls.rdQLenPdf::31                      0                       # What read queue length does an incoming req see
system.mem_ctrls.wrQLenPdf::0                       1                       # What write queue length does an incoming req see
system.mem_ctrls.wrQLenPdf::1                       1                       # What write queue length does an incoming req see
system.mem_ctrls.wrQLenPdf::2                       1                       # What write queue length does an incoming req see
system.mem_ctrls.wrQLenPdf::3                       1                       # What write queue length does an incoming req see
system.mem_ctrls.wrQLenPdf::4                       1                       # What write queue length does an incoming req see
system.mem_ctrls.wrQLenPdf::5                       1                       # What write queue length does an incoming req see
system.mem_ctrls.wrQLenPdf::6                       1                       # What write queue length does an incoming req see
system.mem_ctrls.wrQLenPdf::7                       1                       # What write queue length does an incoming req see
system.mem_ctrls.wrQLenPdf::8                       1                       # What write queue length does an incoming req see
system.mem_ctrls.wrQLenPdf::9                       1                       # What write queue length does an incoming req see
system.mem_ctrls.wrQLenPdf::10                      1                       # What write queue length does an incoming req see
system.mem_ctrls.wrQLenPdf::11                      1                       # What write queue length does an incoming req see
system.mem_ctrls.wrQLenPdf::12                      1                       # What write queue length does an incoming req see
system.mem_ctrls.wrQLenPdf::13                      1                       # What write queue length does an incoming req see
system.mem_ctrls.wrQLenPdf::14                      1                       # What write queue length does an incoming req see
system.mem_ctrls.wrQLenPdf::15                   4044                       # What write queue length does an incoming req see
system.mem_ctrls.wrQLenPdf::16                   4844                       # What write queue length does an incoming req see
system.mem_ctrls.wrQLenPdf::17                 521547                       # What write queue length does an incoming req see
system.mem_ctrls.wrQLenPdf::18                 521614                       # What write queue length does an incoming req see
system.mem_ctrls.wrQLenPdf::19                 521614                       # What write queue length does an incoming req see
system.mem_ctrls.wrQLenPdf::20                 521616                       # What write queue length does an incoming req see
system.mem_ctrls.wrQLenPdf::21                 521616                       # What write queue length does an incoming req see
system.mem_ctrls.wrQLenPdf::22                 521618                       # What write queue length does an incoming req see
system.mem_ctrls.wrQLenPdf::23                 521618                       # What write queue length does an incoming req see
system.mem_ctrls.wrQLenPdf::24                 521616                       # What write queue length does an incoming req see
system.mem_ctrls.wrQLenPdf::25                 521621                       # What write queue length does an incoming req see
system.mem_ctrls.wrQLenPdf::26                 521621                       # What write queue length does an incoming req see
system.mem_ctrls.wrQLenPdf::27                 521620                       # What write queue length does an incoming req see
system.mem_ctrls.wrQLenPdf::28                 521626                       # What write queue length does an incoming req see
system.mem_ctrls.wrQLenPdf::29                 521749                       # What write queue length does an incoming req see
system.mem_ctrls.wrQLenPdf::30                 521623                       # What write queue length does an incoming req see
system.mem_ctrls.wrQLenPdf::31                 521616                       # What write queue length does an incoming req see
system.mem_ctrls.wrQLenPdf::32                 521614                       # What write queue length does an incoming req see
system.mem_ctrls.wrQLenPdf::33                      1                       # What write queue length does an incoming req see
system.mem_ctrls.wrQLenPdf::34                      0                       # What write queue length does an incoming req see
system.mem_ctrls.wrQLenPdf::35                      0                       # What write queue length does an incoming req see
system.mem_ctrls.wrQLenPdf::36                      0                       # What write queue length does an incoming req see
system.mem_ctrls.wrQLenPdf::37                      0                       # What write queue length does an incoming req see
system.mem_ctrls.wrQLenPdf::38                      0                       # What write queue length does an incoming req see
system.mem_ctrls.wrQLenPdf::39                      0                       # What write queue length does an incoming req see
system.mem_ctrls.wrQLenPdf::40                      0                       # What write queue length does an incoming req see
system.mem_ctrls.wrQLenPdf::41                      0                       # What write queue length does an incoming req see
system.mem_ctrls.wrQLenPdf::42                      0                       # What write queue length does an incoming req see
system.mem_ctrls.wrQLenPdf::43                      0                       # What write queue length does an incoming req see
system.mem_ctrls.wrQLenPdf::44                      0                       # What write queue length does an incoming req see
system.mem_ctrls.wrQLenPdf::45                      0                       # What write queue length does an incoming req see
system.mem_ctrls.wrQLenPdf::46                      0                       # What write queue length does an incoming req see
system.mem_ctrls.wrQLenPdf::47                      0                       # What write queue length does an incoming req see
system.mem_ctrls.wrQLenPdf::48                      0                       # What write queue length does an incoming req see
system.mem_ctrls.wrQLenPdf::49                      0                       # What write queue length does an incoming req see
system.mem_ctrls.wrQLenPdf::50                      0                       # What write queue length does an incoming req see
system.mem_ctrls.wrQLenPdf::51                      0                       # What write queue length does an incoming req see
system.mem_ctrls.wrQLenPdf::52                      0                       # What write queue length does an incoming req see
system.mem_ctrls.wrQLenPdf::53                      0                       # What write queue length does an incoming req see
system.mem_ctrls.wrQLenPdf::54                      0                       # What write queue length does an incoming req see
system.mem_ctrls.wrQLenPdf::55                      0                       # What write queue length does an incoming req see
system.mem_ctrls.wrQLenPdf::56                      0                       # What write queue length does an incoming req see
system.mem_ctrls.wrQLenPdf::57                      0                       # What write queue length does an incoming req see
system.mem_ctrls.wrQLenPdf::58                      0                       # What write queue length does an incoming req see
system.mem_ctrls.wrQLenPdf::59                      0                       # What write queue length does an incoming req see
system.mem_ctrls.wrQLenPdf::60                      0                       # What write queue length does an incoming req see
system.mem_ctrls.wrQLenPdf::61                      0                       # What write queue length does an incoming req see
system.mem_ctrls.wrQLenPdf::62                      0                       # What write queue length does an incoming req see
system.mem_ctrls.wrQLenPdf::63                      0                       # What write queue length does an incoming req see
system.mem_ctrls.bytesPerActivate::samples      2027357                       # Bytes accessed per row activation
system.mem_ctrls.bytesPerActivate::mean    790.449185                       # Bytes accessed per row activation
system.mem_ctrls.bytesPerActivate::gmean   616.608057                       # Bytes accessed per row activation
system.mem_ctrls.bytesPerActivate::stdev   353.879527                       # Bytes accessed per row activation
system.mem_ctrls.bytesPerActivate::0-127       210999     10.41%     10.41% # Bytes accessed per row activation
system.mem_ctrls.bytesPerActivate::128-255        81342      4.01%     14.42% # Bytes accessed per row activation
system.mem_ctrls.bytesPerActivate::256-383        93705      4.62%     19.04% # Bytes accessed per row activation
system.mem_ctrls.bytesPerActivate::384-511        73219      3.61%     22.65% # Bytes accessed per row activation
system.mem_ctrls.bytesPerActivate::512-639        65849      3.25%     25.90% # Bytes accessed per row activation
system.mem_ctrls.bytesPerActivate::640-767        88927      4.39%     30.29% # Bytes accessed per row activation
system.mem_ctrls.bytesPerActivate::768-895        81708      4.03%     34.32% # Bytes accessed per row activation
system.mem_ctrls.bytesPerActivate::896-1023        63815      3.15%     37.47% # Bytes accessed per row activation
system.mem_ctrls.bytesPerActivate::1024-1151      1267793     62.53%    100.00% # Bytes accessed per row activation
system.mem_ctrls.bytesPerActivate::total      2027357                       # Bytes accessed per row activation
system.mem_ctrls.rdPerTurnAround::samples       521614                       # Reads before turning the bus around for writes
system.mem_ctrls.rdPerTurnAround::mean      31.986436                       # Reads before turning the bus around for writes
system.mem_ctrls.rdPerTurnAround::gmean     31.906588                       # Reads before turning the bus around for writes
system.mem_ctrls.rdPerTurnAround::stdev     20.222015                       # Reads before turning the bus around for writes
system.mem_ctrls.rdPerTurnAround::0-511        521606    100.00%    100.00% # Reads before turning the bus around for writes
system.mem_ctrls.rdPerTurnAround::512-1023            3      0.00%    100.00% # Reads before turning the bus around for writes
system.mem_ctrls.rdPerTurnAround::2048-2559            1      0.00%    100.00% # Reads before turning the bus around for writes
system.mem_ctrls.rdPerTurnAround::3584-4095            1      0.00%    100.00% # Reads before turning the bus around for writes
system.mem_ctrls.rdPerTurnAround::4608-5119            1      0.00%    100.00% # Reads before turning the bus around for writes
system.mem_ctrls.rdPerTurnAround::7168-7679            1      0.00%    100.00% # Reads before turning the bus around for writes
system.mem_ctrls.rdPerTurnAround::10752-11263            1      0.00%    100.00% # Reads before turning the bus around for writes
system.mem_ctrls.rdPerTurnAround::total        521614                       # Reads before turning the bus around for writes
system.mem_ctrls.wrPerTurnAround::samples       521614                       # Writes before turning the bus around for reads
system.mem_ctrls.wrPerTurnAround::mean      16.017248                       # Writes before turning the bus around for reads
system.mem_ctrls.wrPerTurnAround::gmean     16.016287                       # Writes before turning the bus around for reads
system.mem_ctrls.wrPerTurnAround::stdev      0.182441                       # Writes before turning the bus around for reads
system.mem_ctrls.wrPerTurnAround::16           516770     99.07%     99.07% # Writes before turning the bus around for reads
system.mem_ctrls.wrPerTurnAround::17              798      0.15%     99.22% # Writes before turning the bus around for reads
system.mem_ctrls.wrPerTurnAround::18             3939      0.76%     99.98% # Writes before turning the bus around for reads
system.mem_ctrls.wrPerTurnAround::19              107      0.02%    100.00% # Writes before turning the bus around for reads
system.mem_ctrls.wrPerTurnAround::total        521614                       # Writes before turning the bus around for reads
system.mem_ctrls.totQLat                 248777351000                       # Total ticks spent queuing
system.mem_ctrls.totMemAccLat            561613526000                       # Total ticks spent from burst creation until serviced by the DRAM
system.mem_ctrls.totBusLat                83422980000                       # Total ticks spent in databus transfers
system.mem_ctrls.avgQLat                     14910.60                       # Average queueing delay per DRAM burst
system.mem_ctrls.avgBusLat                    5000.00                       # Average bus latency per DRAM burst
system.mem_ctrls.avgMemAccLat                33660.60                       # Average memory access latency per DRAM burst
system.mem_ctrls.avgRdBW                       441.93                       # Average DRAM read bandwidth in MiByte/s
system.mem_ctrls.avgWrBW                       221.30                       # Average achieved write bandwidth in MiByte/s
system.mem_ctrls.avgRdBWSys                    220.97                       # Average system read bandwidth in MiByte/s
system.mem_ctrls.avgWrBWSys                    220.22                       # Average system write bandwidth in MiByte/s
system.mem_ctrls.peakBW                      12800.00                       # Theoretical peak bandwidth in MiByte/s
system.mem_ctrls.busUtil                         5.18                       # Data bus utilization in percentage
system.mem_ctrls.busUtilRead                     3.45                       # Data bus utilization in percentage for reads
system.mem_ctrls.busUtilWrite                    1.73                       # Data bus utilization in percentage for writes
system.mem_ctrls.avgRdQLen                       1.00                       # Average read queue length when enqueuing
system.mem_ctrls.avgWrQLen                      25.34                       # Average write queue length when enqueuing
system.mem_ctrls.readRowHits                 15310990                       # Number of row buffer hits during reads
system.mem_ctrls.writeRowHits                 7701070                       # Number of row buffer hits during writes
system.mem_ctrls.readRowHitRate                 91.77                       # Row buffer hit rate for reads
system.mem_ctrls.writeRowHitRate                92.17                       # Row buffer hit rate for writes
system.mem_ctrls.avgGap                      72529.78                       # Average gap between requests
system.mem_ctrls.pageHitRate                    91.90                       # Row buffer hit rate, read and write combined
system.mem_ctrls_0.actEnergy               7251691020                       # Energy for activate commands per rank (pJ)
system.mem_ctrls_0.preEnergy               3854365185                       # Energy for precharge commands per rank (pJ)
system.mem_ctrls_0.readEnergy             59569034280                       # Energy for read commands per rank (pJ)
system.mem_ctrls_0.writeEnergy            21809118240                       # Energy for write commands per rank (pJ)
system.mem_ctrls_0.refreshEnergy         118477391760.000031                       # Energy for refresh commands per rank (pJ)
system.mem_ctrls_0.actBackEnergy         148826248740                       # Energy for active background per rank (pJ)
system.mem_ctrls_0.preBackEnergy           9047407200                       # Energy for precharge background per rank (pJ)
system.mem_ctrls_0.actPowerDownEnergy    307123185420                       # Energy for active power-down per rank (pJ)
system.mem_ctrls_0.prePowerDownEnergy    101602266720                       # Energy for precharge power-down per rank (pJ)
system.mem_ctrls_0.selfRefreshEnergy     286988310990                       # Energy for self refresh per rank (pJ)
system.mem_ctrls_0.totalEnergy           1064571827595                       # Total energy per rank (pJ)
system.mem_ctrls_0.averagePower            440.588242                       # Core power per rank (mW)
system.mem_ctrls_0.totalIdleTime         2066261022750                       # Total Idle time Per DRAM Rank
system.mem_ctrls_0.memoryStateTime::IDLE  10420786500                       # Time in different power states
system.mem_ctrls_0.memoryStateTime::REF   50299026000                       # Time in different power states
system.mem_ctrls_0.memoryStateTime::SREF 1128161405750                       # Time in different power states
system.mem_ctrls_0.memoryStateTime::PRE_PDN 264590695750                       # Time in different power states
system.mem_ctrls_0.memoryStateTime::ACT  289260270750                       # Time in different power states
system.mem_ctrls_0.memoryStateTime::ACT_PDN 673518913750                       # Time in different power states
system.mem_ctrls_1.actEnergy               7223637960                       # Energy for activate commands per rank (pJ)
system.mem_ctrls_1.preEnergy               3839454630                       # Energy for precharge commands per rank (pJ)
system.mem_ctrls_1.readEnergy             59558981160                       # Energy for read commands per rank (pJ)
system.mem_ctrls_1.writeEnergy            21803047380                       # Energy for write commands per rank (pJ)
system.mem_ctrls_1.refreshEnergy         116182940640.000031                       # Energy for refresh commands per rank (pJ)
system.mem_ctrls_1.actBackEnergy         148324782120                       # Energy for active background per rank (pJ)
system.mem_ctrls_1.preBackEnergy           8900480160                       # Energy for precharge background per rank (pJ)
system.mem_ctrls_1.actPowerDownEnergy    302787726660                       # Energy for active power-down per rank (pJ)
system.mem_ctrls_1.prePowerDownEnergy     97807198080                       # Energy for precharge power-down per rank (pJ)
system.mem_ctrls_1.selfRefreshEnergy     291373339215                       # Energy for self refresh per rank (pJ)
system.mem_ctrls_1.totalEnergy           1057824225375                       # Total energy per rank (pJ)
system.mem_ctrls_1.averagePower            437.795651                       # Core power per rank (mW)
system.mem_ctrls_1.totalIdleTime         2067750585500                       # Total Idle time Per DRAM Rank
system.mem_ctrls_1.memoryStateTime::IDLE  10110152750                       # Time in different power states
system.mem_ctrls_1.memoryStateTime::REF   49321708000                       # Time in different power states
system.mem_ctrls_1.memoryStateTime::SREF 1149034694500                       # Time in different power states
system.mem_ctrls_1.memoryStateTime::PRE_PDN 254707706500                       # Time in different power states
system.mem_ctrls_1.memoryStateTime::ACT  289065200500                       # Time in different power states
system.mem_ctrls_1.memoryStateTime::ACT_PDN 664011636250                       # Time in different power states
system.pwrStateResidencyTicks::UNDEFINED 2416251098500                       # Cumulative time (in ticks) in various power states
system.cpu_voltage_domain.voltage                   1                       # Voltage in Volts
system.cpu_clk_domain.clock                       500                       # Clock period in ticks
system.cpu.dtb.walker.pwrStateResidencyTicks::UNDEFINED 2416251098500                       # Cumulative time (in ticks) in various power states
system.cpu.apic_clk_domain.clock                 8000                       # Clock period in ticks
system.cpu.interrupts.pwrStateResidencyTicks::UNDEFINED 2416251098500                       # Cumulative time (in ticks) in various power states
system.cpu.itb.walker.pwrStateResidencyTicks::UNDEFINED 2416251098500                       # Cumulative time (in ticks) in various power states
system.cpu.workload.num_syscalls                  196                       # Number of system calls
system.cpu.pwrStateResidencyTicks::ON    2416251098500                       # Cumulative time (in ticks) in various power states
system.cpu.numCycles                       4832502197                       # number of cpu cycles simulated
system.cpu.numWorkItemsStarted                      0                       # number of work items this cpu started
system.cpu.numWorkItemsCompleted                    0                       # number of work items this cpu completed
system.cpu.committedInsts                   500000000                       # Number of instructions committed
system.cpu.committedOps                     823366692                       # Number of ops (including micro ops) committed
system.cpu.num_int_alu_accesses             821415783                       # Number of integer alu accesses
system.cpu.num_fp_alu_accesses               66619246                       # Number of float alu accesses
system.cpu.num_func_calls                     5652773                       # number of times a function call or return occured
system.cpu.num_conditional_control_insts     57208853                       # number of instructions that are conditional controls
system.cpu.num_int_insts                    821415783                       # number of integer instructions
system.cpu.num_fp_insts                      66619246                       # number of float instructions
system.cpu.num_int_register_reads          1637209917                       # number of times the integer registers were read
system.cpu.num_int_register_writes          639871082                       # number of times the integer registers were written
system.cpu.num_fp_register_reads             66766836                       # number of times the floating registers were read
system.cpu.num_fp_register_writes              208042                       # number of times the floating registers were written
system.cpu.num_cc_register_reads            319714243                       # number of times the CC registers were read
system.cpu.num_cc_register_writes           287984022                       # number of times the CC registers were written
system.cpu.num_mem_refs                     271673939                       # number of memory refs
system.cpu.num_load_insts                   157213791                       # Number of load instructions
system.cpu.num_store_insts                  114460148                       # Number of store instructions
system.cpu.num_idle_cycles                          0                       # Number of idle cycles
system.cpu.num_busy_cycles                 4832502197                       # Number of busy cycles
system.cpu.not_idle_fraction                        1                       # Percentage of non-idle cycles
system.cpu.idle_fraction                            0                       # Percentage of idle cycles
system.cpu.Branches                          69678400                       # Number of branches fetched
system.cpu.op_class::No_OpClass                202234      0.02%      0.02% # Class of executed instruction
system.cpu.op_class::IntAlu                 550028817     66.80%     66.83% # Class of executed instruction
system.cpu.op_class::IntMult                   125092      0.02%     66.84% # Class of executed instruction
system.cpu.op_class::IntDiv                   1153479      0.14%     66.98% # Class of executed instruction
system.cpu.op_class::FloatAdd                  183131      0.02%     67.00% # Class of executed instruction
system.cpu.op_class::FloatCmp                       0      0.00%     67.00% # Class of executed instruction
system.cpu.op_class::FloatCvt                       0      0.00%     67.00% # Class of executed instruction
system.cpu.op_class::FloatMult                      0      0.00%     67.00% # Class of executed instruction
system.cpu.op_class::FloatDiv                       0      0.00%     67.00% # Class of executed instruction
system.cpu.op_class::FloatSqrt                      0      0.00%     67.00% # Class of executed instruction
system.cpu.op_class::SimdAdd                        0      0.00%     67.00% # Class of executed instruction
system.cpu.op_class::SimdAddAcc                     0      0.00%     67.00% # Class of executed instruction
system.cpu.op_class::SimdAlu                        0      0.00%     67.00% # Class of executed instruction
system.cpu.op_class::SimdCmp                        0      0.00%     67.00% # Class of executed instruction
system.cpu.op_class::SimdCvt                        0      0.00%     67.00% # Class of executed instruction
system.cpu.op_class::SimdMisc                       0      0.00%     67.00% # Class of executed instruction
system.cpu.op_class::SimdMult                       0      0.00%     67.00% # Class of executed instruction
system.cpu.op_class::SimdMultAcc                    0      0.00%     67.00% # Class of executed instruction
system.cpu.op_class::SimdShift                      0      0.00%     67.00% # Class of executed instruction
system.cpu.op_class::SimdShiftAcc                   0      0.00%     67.00% # Class of executed instruction
system.cpu.op_class::SimdSqrt                       0      0.00%     67.00% # Class of executed instruction
system.cpu.op_class::SimdFloatAdd                   0      0.00%     67.00% # Class of executed instruction
system.cpu.op_class::SimdFloatAlu                   0      0.00%     67.00% # Class of executed instruction
system.cpu.op_class::SimdFloatCmp                   0      0.00%     67.00% # Class of executed instruction
system.cpu.op_class::SimdFloatCvt                   0      0.00%     67.00% # Class of executed instruction
system.cpu.op_class::SimdFloatDiv                   0      0.00%     67.00% # Class of executed instruction
system.cpu.op_class::SimdFloatMisc                  0      0.00%     67.00% # Class of executed instruction
system.cpu.op_class::SimdFloatMult                  0      0.00%     67.00% # Class of executed instruction
system.cpu.op_class::SimdFloatMultAcc               0      0.00%     67.00% # Class of executed instruction
system.cpu.op_class::SimdFloatSqrt                  0      0.00%     67.00% # Class of executed instruction
system.cpu.op_class::MemRead                157213791     19.09%     86.10% # Class of executed instruction
system.cpu.op_class::MemWrite               114460148     13.90%    100.00% # Class of executed instruction
system.cpu.op_class::IprAccess                      0      0.00%    100.00% # Class of executed instruction
system.cpu.op_class::InstPrefetch                   0      0.00%    100.00% # Class of executed instruction
system.cpu.op_class::total                  823366692                       # Class of executed instruction
system.cpu.dcache.tags.pwrStateResidencyTicks::UNDEFINED 2416251098500                       # Cumulative time (in ticks) in various power states
system.cpu.dcache.tags.replacements          16835803                       # number of replacements
system.cpu.dcache.tags.tagsinuse          2047.379557                       # Cycle average of tags in use
system.cpu.dcache.tags.total_refs           254836705                       # Total number of references to valid blocks.
system.cpu.dcache.tags.sampled_refs          16837851                       # Sample count of references to valid blocks.
system.cpu.dcache.tags.avg_refs             15.134752                       # Average number of references to valid blocks.
system.cpu.dcache.tags.warmup_cycle        5770424500                       # Cycle when the warmup percentage was hit.
system.cpu.dcache.tags.occ_blocks::cpu.data  2047.379557                       # Average occupied blocks per requestor
system.cpu.dcache.tags.occ_percent::cpu.data     0.999697                       # Average percentage of cache occupancy
system.cpu.dcache.tags.occ_percent::total     0.999697                       # Average percentage of cache occupancy
system.cpu.dcache.tags.occ_task_id_blocks::1024         2048                       # Occupied blocks per task id
system.cpu.dcache.tags.age_task_id_blocks_1024::0            1                       # Occupied blocks per task id
system.cpu.dcache.tags.age_task_id_blocks_1024::1           48                       # Occupied blocks per task id
system.cpu.dcache.tags.age_task_id_blocks_1024::2          169                       # Occupied blocks per task id
system.cpu.dcache.tags.age_task_id_blocks_1024::3          792                       # Occupied blocks per task id
system.cpu.dcache.tags.age_task_id_blocks_1024::4         1038                       # Occupied blocks per task id
system.cpu.dcache.tags.occ_task_id_percent::1024            1                       # Percentage of cache occupancy per task id
system.cpu.dcache.tags.tag_accesses         560186963                       # Number of tag accesses
system.cpu.dcache.tags.data_accesses        560186963                       # Number of data accesses
system.cpu.dcache.pwrStateResidencyTicks::UNDEFINED 2416251098500                       # Cumulative time (in ticks) in various power states
system.cpu.dcache.ReadReq_hits::cpu.data    157049843                       # number of ReadReq hits
system.cpu.dcache.ReadReq_hits::total       157049843                       # number of ReadReq hits
system.cpu.dcache.WriteReq_hits::cpu.data     97786862                       # number of WriteReq hits
system.cpu.dcache.WriteReq_hits::total       97786862                       # number of WriteReq hits
system.cpu.dcache.demand_hits::cpu.data     254836705                       # number of demand (read+write) hits
system.cpu.dcache.demand_hits::total        254836705                       # number of demand (read+write) hits
system.cpu.dcache.overall_hits::cpu.data    254836705                       # number of overall hits
system.cpu.dcache.overall_hits::total       254836705                       # number of overall hits
system.cpu.dcache.ReadReq_misses::cpu.data       164552                       # number of ReadReq misses
system.cpu.dcache.ReadReq_misses::total        164552                       # number of ReadReq misses
system.cpu.dcache.WriteReq_misses::cpu.data     16673299                       # number of WriteReq misses
system.cpu.dcache.WriteReq_misses::total     16673299                       # number of WriteReq misses
system.cpu.dcache.demand_misses::cpu.data     16837851                       # number of demand (read+write) misses
system.cpu.dcache.demand_misses::total       16837851                       # number of demand (read+write) misses
system.cpu.dcache.overall_misses::cpu.data     16837851                       # number of overall misses
system.cpu.dcache.overall_misses::total      16837851                       # number of overall misses
system.cpu.dcache.ReadReq_miss_latency::cpu.data  27826183000                       # number of ReadReq miss cycles
system.cpu.dcache.ReadReq_miss_latency::total  27826183000                       # number of ReadReq miss cycles
system.cpu.dcache.WriteReq_miss_latency::cpu.data 1423307577500                       # number of WriteReq miss cycles
system.cpu.dcache.WriteReq_miss_latency::total 1423307577500                       # number of WriteReq miss cycles
system.cpu.dcache.demand_miss_latency::cpu.data 1451133760500                       # number of demand (read+write) miss cycles
system.cpu.dcache.demand_miss_latency::total 1451133760500                       # number of demand (read+write) miss cycles
system.cpu.dcache.overall_miss_latency::cpu.data 1451133760500                       # number of overall miss cycles
system.cpu.dcache.overall_miss_latency::total 1451133760500                       # number of overall miss cycles
system.cpu.dcache.ReadReq_accesses::cpu.data    157214395                       # number of ReadReq accesses(hits+misses)
system.cpu.dcache.ReadReq_accesses::total    157214395                       # number of ReadReq accesses(hits+misses)
system.cpu.dcache.WriteReq_accesses::cpu.data    114460161                       # number of WriteReq accesses(hits+misses)
system.cpu.dcache.WriteReq_accesses::total    114460161                       # number of WriteReq accesses(hits+misses)
system.cpu.dcache.demand_accesses::cpu.data    271674556                       # number of demand (read+write) accesses
system.cpu.dcache.demand_accesses::total    271674556                       # number of demand (read+write) accesses
system.cpu.dcache.overall_accesses::cpu.data    271674556                       # number of overall (read+write) accesses
system.cpu.dcache.overall_accesses::total    271674556                       # number of overall (read+write) accesses
system.cpu.dcache.ReadReq_miss_rate::cpu.data     0.001047                       # miss rate for ReadReq accesses
system.cpu.dcache.ReadReq_miss_rate::total     0.001047                       # miss rate for ReadReq accesses
system.cpu.dcache.WriteReq_miss_rate::cpu.data     0.145669                       # miss rate for WriteReq accesses
system.cpu.dcache.WriteReq_miss_rate::total     0.145669                       # miss rate for WriteReq accesses
system.cpu.dcache.demand_miss_rate::cpu.data     0.061978                       # miss rate for demand accesses
system.cpu.dcache.demand_miss_rate::total     0.061978                       # miss rate for demand accesses
system.cpu.dcache.overall_miss_rate::cpu.data     0.061978                       # miss rate for overall accesses
system.cpu.dcache.overall_miss_rate::total     0.061978                       # miss rate for overall accesses
system.cpu.dcache.ReadReq_avg_miss_latency::cpu.data 169102.672711                       # average ReadReq miss latency
system.cpu.dcache.ReadReq_avg_miss_latency::total 169102.672711                       # average ReadReq miss latency
system.cpu.dcache.WriteReq_avg_miss_latency::cpu.data 85364.484707                       # average WriteReq miss latency
system.cpu.dcache.WriteReq_avg_miss_latency::total 85364.484707                       # average WriteReq miss latency
system.cpu.dcache.demand_avg_miss_latency::cpu.data 86182.836545                       # average overall miss latency
system.cpu.dcache.demand_avg_miss_latency::total 86182.836545                       # average overall miss latency
system.cpu.dcache.overall_avg_miss_latency::cpu.data 86182.836545                       # average overall miss latency
system.cpu.dcache.overall_avg_miss_latency::total 86182.836545                       # average overall miss latency
system.cpu.dcache.blocked_cycles::no_mshrs            0                       # number of cycles access was blocked
system.cpu.dcache.blocked_cycles::no_targets            0                       # number of cycles access was blocked
system.cpu.dcache.blocked::no_mshrs                 0                       # number of cycles access was blocked
system.cpu.dcache.blocked::no_targets               0                       # number of cycles access was blocked
system.cpu.dcache.avg_blocked_cycles::no_mshrs          nan                       # average number of cycles each access was blocked
system.cpu.dcache.avg_blocked_cycles::no_targets          nan                       # average number of cycles each access was blocked
system.cpu.dcache.writebacks::writebacks     16768498                       # number of writebacks
system.cpu.dcache.writebacks::total          16768498                       # number of writebacks
system.cpu.dcache.ReadReq_mshr_misses::cpu.data       164552                       # number of ReadReq MSHR misses
system.cpu.dcache.ReadReq_mshr_misses::total       164552                       # number of ReadReq MSHR misses
system.cpu.dcache.WriteReq_mshr_misses::cpu.data     16673299                       # number of WriteReq MSHR misses
system.cpu.dcache.WriteReq_mshr_misses::total     16673299                       # number of WriteReq MSHR misses
system.cpu.dcache.demand_mshr_misses::cpu.data     16837851                       # number of demand (read+write) MSHR misses
system.cpu.dcache.demand_mshr_misses::total     16837851                       # number of demand (read+write) MSHR misses
system.cpu.dcache.overall_mshr_misses::cpu.data     16837851                       # number of overall MSHR misses
system.cpu.dcache.overall_mshr_misses::total     16837851                       # number of overall MSHR misses
system.cpu.dcache.ReadReq_mshr_miss_latency::cpu.data  27661631000                       # number of ReadReq MSHR miss cycles
system.cpu.dcache.ReadReq_mshr_miss_latency::total  27661631000                       # number of ReadReq MSHR miss cycles
system.cpu.dcache.WriteReq_mshr_miss_latency::cpu.data 1406634278500                       # number of WriteReq MSHR miss cycles
system.cpu.dcache.WriteReq_mshr_miss_latency::total 1406634278500                       # number of WriteReq MSHR miss cycles
system.cpu.dcache.demand_mshr_miss_latency::cpu.data 1434295909500                       # number of demand (read+write) MSHR miss cycles
system.cpu.dcache.demand_mshr_miss_latency::total 1434295909500                       # number of demand (read+write) MSHR miss cycles
system.cpu.dcache.overall_mshr_miss_latency::cpu.data 1434295909500                       # number of overall MSHR miss cycles
system.cpu.dcache.overall_mshr_miss_latency::total 1434295909500                       # number of overall MSHR miss cycles
system.cpu.dcache.ReadReq_mshr_miss_rate::cpu.data     0.001047                       # mshr miss rate for ReadReq accesses
system.cpu.dcache.ReadReq_mshr_miss_rate::total     0.001047                       # mshr miss rate for ReadReq accesses
system.cpu.dcache.WriteReq_mshr_miss_rate::cpu.data     0.145669                       # mshr miss rate for WriteReq accesses
system.cpu.dcache.WriteReq_mshr_miss_rate::total     0.145669                       # mshr miss rate for WriteReq accesses
system.cpu.dcache.demand_mshr_miss_rate::cpu.data     0.061978                       # mshr miss rate for demand accesses
system.cpu.dcache.demand_mshr_miss_rate::total     0.061978                       # mshr miss rate for demand accesses
system.cpu.dcache.overall_mshr_miss_rate::cpu.data     0.061978                       # mshr miss rate for overall accesses
system.cpu.dcache.overall_mshr_miss_rate::total     0.061978                       # mshr miss rate for overall accesses
system.cpu.dcache.ReadReq_avg_mshr_miss_latency::cpu.data 168102.672711                       # average ReadReq mshr miss latency
system.cpu.dcache.ReadReq_avg_mshr_miss_latency::total 168102.672711                       # average ReadReq mshr miss latency
system.cpu.dcache.WriteReq_avg_mshr_miss_latency::cpu.data 84364.484707                       # average WriteReq mshr miss latency
system.cpu.dcache.WriteReq_avg_mshr_miss_latency::total 84364.484707                       # average WriteReq mshr miss latency
system.cpu.dcache.demand_avg_mshr_miss_latency::cpu.data 85182.836545                       # average overall mshr miss latency
system.cpu.dcache.demand_avg_mshr_miss_latency::total 85182.836545                       # average overall mshr miss latency
system.cpu.dcache.overall_avg_mshr_miss_latency::cpu.data 85182.836545                       # average overall mshr miss latency
system.cpu.dcache.overall_avg_mshr_miss_latency::total 85182.836545                       # average overall mshr miss latency
system.cpu.dtb_walker_cache.tags.pwrStateResidencyTicks::UNDEFINED 2416251098500                       # Cumulative time (in ticks) in various power states
system.cpu.dtb_walker_cache.tags.replacements            0                       # number of replacements
system.cpu.dtb_walker_cache.tags.tagsinuse            0                       # Cycle average of tags in use
system.cpu.dtb_walker_cache.tags.total_refs            0                       # Total number of references to valid blocks.
system.cpu.dtb_walker_cache.tags.sampled_refs            0                       # Sample count of references to valid blocks.
system.cpu.dtb_walker_cache.tags.avg_refs          nan                       # Average number of references to valid blocks.
system.cpu.dtb_walker_cache.tags.warmup_cycle            0                       # Cycle when the warmup percentage was hit.
system.cpu.dtb_walker_cache.tags.tag_accesses            0                       # Number of tag accesses
system.cpu.dtb_walker_cache.tags.data_accesses            0                       # Number of data accesses
system.cpu.dtb_walker_cache.pwrStateResidencyTicks::UNDEFINED 2416251098500                       # Cumulative time (in ticks) in various power states
system.cpu.dtb_walker_cache.blocked_cycles::no_mshrs            0                       # number of cycles access was blocked
system.cpu.dtb_walker_cache.blocked_cycles::no_targets            0                       # number of cycles access was blocked
system.cpu.dtb_walker_cache.blocked::no_mshrs            0                       # number of cycles access was blocked
system.cpu.dtb_walker_cache.blocked::no_targets            0                       # number of cycles access was blocked
system.cpu.dtb_walker_cache.avg_blocked_cycles::no_mshrs          nan                       # average number of cycles each access was blocked
system.cpu.dtb_walker_cache.avg_blocked_cycles::no_targets          nan                       # average number of cycles each access was blocked
system.cpu.icache.tags.pwrStateResidencyTicks::UNDEFINED 2416251098500                       # Cumulative time (in ticks) in various power states
system.cpu.icache.tags.replacements           2809456                       # number of replacements
system.cpu.icache.tags.tagsinuse           834.448867                       # Cycle average of tags in use
system.cpu.icache.tags.total_refs           672543178                       # Total number of references to valid blocks.
system.cpu.icache.tags.sampled_refs           2810479                       # Sample count of references to valid blocks.
system.cpu.icache.tags.avg_refs            239.298418                       # Average number of references to valid blocks.
system.cpu.icache.tags.warmup_cycle                 0                       # Cycle when the warmup percentage was hit.
system.cpu.icache.tags.occ_blocks::cpu.inst   834.448867                       # Average occupied blocks per requestor
system.cpu.icache.tags.occ_percent::cpu.inst     0.814891                       # Average percentage of cache occupancy
system.cpu.icache.tags.occ_percent::total     0.814891                       # Average percentage of cache occupancy
system.cpu.icache.tags.occ_task_id_blocks::1024         1023                       # Occupied blocks per task id
system.cpu.icache.tags.age_task_id_blocks_1024::0           16                       # Occupied blocks per task id
system.cpu.icache.tags.age_task_id_blocks_1024::1          168                       # Occupied blocks per task id
system.cpu.icache.tags.age_task_id_blocks_1024::2          125                       # Occupied blocks per task id
system.cpu.icache.tags.age_task_id_blocks_1024::3           75                       # Occupied blocks per task id
system.cpu.icache.tags.age_task_id_blocks_1024::4          639                       # Occupied blocks per task id
system.cpu.icache.tags.occ_task_id_percent::1024     0.999023                       # Percentage of cache occupancy per task id
system.cpu.icache.tags.tag_accesses        1353517793                       # Number of tag accesses
system.cpu.icache.tags.data_accesses       1353517793                       # Number of data accesses
system.cpu.icache.pwrStateResidencyTicks::UNDEFINED 2416251098500                       # Cumulative time (in ticks) in various power states
system.cpu.icache.ReadReq_hits::cpu.inst    672543178                       # number of ReadReq hits
system.cpu.icache.ReadReq_hits::total       672543178                       # number of ReadReq hits
system.cpu.icache.demand_hits::cpu.inst     672543178                       # number of demand (read+write) hits
system.cpu.icache.demand_hits::total        672543178                       # number of demand (read+write) hits
system.cpu.icache.overall_hits::cpu.inst    672543178                       # number of overall hits
system.cpu.icache.overall_hits::total       672543178                       # number of overall hits
system.cpu.icache.ReadReq_misses::cpu.inst      2810479                       # number of ReadReq misses
system.cpu.icache.ReadReq_misses::total       2810479                       # number of ReadReq misses
system.cpu.icache.demand_misses::cpu.inst      2810479                       # number of demand (read+write) misses
system.cpu.icache.demand_misses::total        2810479                       # number of demand (read+write) misses
system.cpu.icache.overall_misses::cpu.inst      2810479                       # number of overall misses
system.cpu.icache.overall_misses::total       2810479                       # number of overall misses
system.cpu.icache.ReadReq_miss_latency::cpu.inst  37737882500                       # number of ReadReq miss cycles
system.cpu.icache.ReadReq_miss_latency::total  37737882500                       # number of ReadReq miss cycles
system.cpu.icache.demand_miss_latency::cpu.inst  37737882500                       # number of demand (read+write) miss cycles
system.cpu.icache.demand_miss_latency::total  37737882500                       # number of demand (read+write) miss cycles
system.cpu.icache.overall_miss_latency::cpu.inst  37737882500                       # number of overall miss cycles
system.cpu.icache.overall_miss_latency::total  37737882500                       # number of overall miss cycles
system.cpu.icache.ReadReq_accesses::cpu.inst    675353657                       # number of ReadReq accesses(hits+misses)
system.cpu.icache.ReadReq_accesses::total    675353657                       # number of ReadReq accesses(hits+misses)
system.cpu.icache.demand_accesses::cpu.inst    675353657                       # number of demand (read+write) accesses
system.cpu.icache.demand_accesses::total    675353657                       # number of demand (read+write) accesses
system.cpu.icache.overall_accesses::cpu.inst    675353657                       # number of overall (read+write) accesses
system.cpu.icache.overall_accesses::total    675353657                       # number of overall (read+write) accesses
system.cpu.icache.ReadReq_miss_rate::cpu.inst     0.004161                       # miss rate for ReadReq accesses
system.cpu.icache.ReadReq_miss_rate::total     0.004161                       # miss rate for ReadReq accesses
system.cpu.icache.demand_miss_rate::cpu.inst     0.004161                       # miss rate for demand accesses
system.cpu.icache.demand_miss_rate::total     0.004161                       # miss rate for demand accesses
system.cpu.icache.overall_miss_rate::cpu.inst     0.004161                       # miss rate for overall accesses
system.cpu.icache.overall_miss_rate::total     0.004161                       # miss rate for overall accesses
system.cpu.icache.ReadReq_avg_miss_latency::cpu.inst 13427.562526                       # average ReadReq miss latency
system.cpu.icache.ReadReq_avg_miss_latency::total 13427.562526                       # average ReadReq miss latency
system.cpu.icache.demand_avg_miss_latency::cpu.inst 13427.562526                       # average overall miss latency
system.cpu.icache.demand_avg_miss_latency::total 13427.562526                       # average overall miss latency
system.cpu.icache.overall_avg_miss_latency::cpu.inst 13427.562526                       # average overall miss latency
system.cpu.icache.overall_avg_miss_latency::total 13427.562526                       # average overall miss latency
system.cpu.icache.blocked_cycles::no_mshrs            0                       # number of cycles access was blocked
system.cpu.icache.blocked_cycles::no_targets            0                       # number of cycles access was blocked
system.cpu.icache.blocked::no_mshrs                 0                       # number of cycles access was blocked
system.cpu.icache.blocked::no_targets               0                       # number of cycles access was blocked
system.cpu.icache.avg_blocked_cycles::no_mshrs          nan                       # average number of cycles each access was blocked
system.cpu.icache.avg_blocked_cycles::no_targets          nan                       # average number of cycles each access was blocked
system.cpu.icache.writebacks::writebacks      2809456                       # number of writebacks
system.cpu.icache.writebacks::total           2809456                       # number of writebacks
system.cpu.icache.ReadReq_mshr_misses::cpu.inst      2810479                       # number of ReadReq MSHR misses
system.cpu.icache.ReadReq_mshr_misses::total      2810479                       # number of ReadReq MSHR misses
system.cpu.icache.demand_mshr_misses::cpu.inst      2810479                       # number of demand (read+write) MSHR misses
system.cpu.icache.demand_mshr_misses::total      2810479                       # number of demand (read+write) MSHR misses
system.cpu.icache.overall_mshr_misses::cpu.inst      2810479                       # number of overall MSHR misses
system.cpu.icache.overall_mshr_misses::total      2810479                       # number of overall MSHR misses
system.cpu.icache.ReadReq_mshr_miss_latency::cpu.inst  34927403500                       # number of ReadReq MSHR miss cycles
system.cpu.icache.ReadReq_mshr_miss_latency::total  34927403500                       # number of ReadReq MSHR miss cycles
system.cpu.icache.demand_mshr_miss_latency::cpu.inst  34927403500                       # number of demand (read+write) MSHR miss cycles
system.cpu.icache.demand_mshr_miss_latency::total  34927403500                       # number of demand (read+write) MSHR miss cycles
system.cpu.icache.overall_mshr_miss_latency::cpu.inst  34927403500                       # number of overall MSHR miss cycles
system.cpu.icache.overall_mshr_miss_latency::total  34927403500                       # number of overall MSHR miss cycles
system.cpu.icache.ReadReq_mshr_miss_rate::cpu.inst     0.004161                       # mshr miss rate for ReadReq accesses
system.cpu.icache.ReadReq_mshr_miss_rate::total     0.004161                       # mshr miss rate for ReadReq accesses
system.cpu.icache.demand_mshr_miss_rate::cpu.inst     0.004161                       # mshr miss rate for demand accesses
system.cpu.icache.demand_mshr_miss_rate::total     0.004161                       # mshr miss rate for demand accesses
system.cpu.icache.overall_mshr_miss_rate::cpu.inst     0.004161                       # mshr miss rate for overall accesses
system.cpu.icache.overall_mshr_miss_rate::total     0.004161                       # mshr miss rate for overall accesses
system.cpu.icache.ReadReq_avg_mshr_miss_latency::cpu.inst 12427.562526                       # average ReadReq mshr miss latency
system.cpu.icache.ReadReq_avg_mshr_miss_latency::total 12427.562526                       # average ReadReq mshr miss latency
system.cpu.icache.demand_avg_mshr_miss_latency::cpu.inst 12427.562526                       # average overall mshr miss latency
system.cpu.icache.demand_avg_mshr_miss_latency::total 12427.562526                       # average overall mshr miss latency
system.cpu.icache.overall_avg_mshr_miss_latency::cpu.inst 12427.562526                       # average overall mshr miss latency
system.cpu.icache.overall_avg_mshr_miss_latency::total 12427.562526                       # average overall mshr miss latency
system.cpu.itb_walker_cache.tags.pwrStateResidencyTicks::UNDEFINED 2416251098500                       # Cumulative time (in ticks) in various power states
system.cpu.itb_walker_cache.tags.replacements            0                       # number of replacements
system.cpu.itb_walker_cache.tags.tagsinuse            0                       # Cycle average of tags in use
system.cpu.itb_walker_cache.tags.total_refs            0                       # Total number of references to valid blocks.
system.cpu.itb_walker_cache.tags.sampled_refs            0                       # Sample count of references to valid blocks.
system.cpu.itb_walker_cache.tags.avg_refs          nan                       # Average number of references to valid blocks.
system.cpu.itb_walker_cache.tags.warmup_cycle            0                       # Cycle when the warmup percentage was hit.
system.cpu.itb_walker_cache.tags.tag_accesses            0                       # Number of tag accesses
system.cpu.itb_walker_cache.tags.data_accesses            0                       # Number of data accesses
system.cpu.itb_walker_cache.pwrStateResidencyTicks::UNDEFINED 2416251098500                       # Cumulative time (in ticks) in various power states
system.cpu.itb_walker_cache.blocked_cycles::no_mshrs            0                       # number of cycles access was blocked
system.cpu.itb_walker_cache.blocked_cycles::no_targets            0                       # number of cycles access was blocked
system.cpu.itb_walker_cache.blocked::no_mshrs            0                       # number of cycles access was blocked
system.cpu.itb_walker_cache.blocked::no_targets            0                       # number of cycles access was blocked
system.cpu.itb_walker_cache.avg_blocked_cycles::no_mshrs          nan                       # average number of cycles each access was blocked
system.cpu.itb_walker_cache.avg_blocked_cycles::no_targets          nan                       # average number of cycles each access was blocked
system.l2.tags.pwrStateResidencyTicks::UNDEFINED 2416251098500                       # Cumulative time (in ticks) in various power states
system.l2.tags.replacements                  16672466                       # number of replacements
system.l2.tags.tagsinuse                 32653.457589                       # Cycle average of tags in use
system.l2.tags.total_refs                    22580967                       # Total number of references to valid blocks.
system.l2.tags.sampled_refs                  16705234                       # Sample count of references to valid blocks.
system.l2.tags.avg_refs                      1.351730                       # Average number of references to valid blocks.
system.l2.tags.warmup_cycle               11058352000                       # Cycle when the warmup percentage was hit.
system.l2.tags.occ_blocks::writebacks      571.782831                       # Average occupied blocks per requestor
system.l2.tags.occ_blocks::cpu.inst        349.877734                       # Average occupied blocks per requestor
system.l2.tags.occ_blocks::cpu.data      31731.797024                       # Average occupied blocks per requestor
system.l2.tags.occ_percent::writebacks       0.017449                       # Average percentage of cache occupancy
system.l2.tags.occ_percent::cpu.inst         0.010677                       # Average percentage of cache occupancy
system.l2.tags.occ_percent::cpu.data         0.968378                       # Average percentage of cache occupancy
system.l2.tags.occ_percent::total            0.996504                       # Average percentage of cache occupancy
system.l2.tags.occ_task_id_blocks::1024         32768                       # Occupied blocks per task id
system.l2.tags.age_task_id_blocks_1024::1           12                       # Occupied blocks per task id
system.l2.tags.age_task_id_blocks_1024::2           96                       # Occupied blocks per task id
system.l2.tags.age_task_id_blocks_1024::3          950                       # Occupied blocks per task id
system.l2.tags.age_task_id_blocks_1024::4        31710                       # Occupied blocks per task id
system.l2.tags.occ_task_id_percent::1024            1                       # Percentage of cache occupancy per task id
system.l2.tags.tag_accesses                  55998823                       # Number of tag accesses
system.l2.tags.data_accesses                 55998823                       # Number of data accesses
system.l2.pwrStateResidencyTicks::UNDEFINED 2416251098500                       # Cumulative time (in ticks) in various power states
system.l2.WritebackDirty_hits::writebacks     16768498                       # number of WritebackDirty hits
system.l2.WritebackDirty_hits::total         16768498                       # number of WritebackDirty hits
system.l2.WritebackClean_hits::writebacks      2809456                       # number of WritebackClean hits
system.l2.WritebackClean_hits::total          2809456                       # number of WritebackClean hits
system.l2.ReadExReq_hits::cpu.data              82787                       # number of ReadExReq hits
system.l2.ReadExReq_hits::total                 82787                       # number of ReadExReq hits
system.l2.ReadCleanReq_hits::cpu.inst         2803789                       # number of ReadCleanReq hits
system.l2.ReadCleanReq_hits::total            2803789                       # number of ReadCleanReq hits
system.l2.ReadSharedReq_hits::cpu.data          76735                       # number of ReadSharedReq hits
system.l2.ReadSharedReq_hits::total             76735                       # number of ReadSharedReq hits
system.l2.demand_hits::cpu.inst               2803789                       # number of demand (read+write) hits
system.l2.demand_hits::cpu.data                159522                       # number of demand (read+write) hits
system.l2.demand_hits::total                  2963311                       # number of demand (read+write) hits
system.l2.overall_hits::cpu.inst              2803789                       # number of overall hits
system.l2.overall_hits::cpu.data               159522                       # number of overall hits
system.l2.overall_hits::total                 2963311                       # number of overall hits
system.l2.ReadExReq_misses::cpu.data         16590512                       # number of ReadExReq misses
system.l2.ReadExReq_misses::total            16590512                       # number of ReadExReq misses
system.l2.ReadCleanReq_misses::cpu.inst          6690                       # number of ReadCleanReq misses
system.l2.ReadCleanReq_misses::total             6690                       # number of ReadCleanReq misses
system.l2.ReadSharedReq_misses::cpu.data        87817                       # number of ReadSharedReq misses
system.l2.ReadSharedReq_misses::total           87817                       # number of ReadSharedReq misses
system.l2.demand_misses::cpu.inst                6690                       # number of demand (read+write) misses
system.l2.demand_misses::cpu.data            16678329                       # number of demand (read+write) misses
system.l2.demand_misses::total               16685019                       # number of demand (read+write) misses
system.l2.overall_misses::cpu.inst               6690                       # number of overall misses
system.l2.overall_misses::cpu.data           16678329                       # number of overall misses
system.l2.overall_misses::total              16685019                       # number of overall misses
system.l2.ReadExReq_miss_latency::cpu.data 1380755066500                       # number of ReadExReq miss cycles
system.l2.ReadExReq_miss_latency::total  1380755066500                       # number of ReadExReq miss cycles
system.l2.ReadCleanReq_miss_latency::cpu.inst   1271900500                       # number of ReadCleanReq miss cycles
system.l2.ReadCleanReq_miss_latency::total   1271900500                       # number of ReadCleanReq miss cycles
system.l2.ReadSharedReq_miss_latency::cpu.data  26609085000                       # number of ReadSharedReq miss cycles
system.l2.ReadSharedReq_miss_latency::total  26609085000                       # number of ReadSharedReq miss cycles
system.l2.demand_miss_latency::cpu.inst    1271900500                       # number of demand (read+write) miss cycles
system.l2.demand_miss_latency::cpu.data  1407364151500                       # number of demand (read+write) miss cycles
system.l2.demand_miss_latency::total     1408636052000                       # number of demand (read+write) miss cycles
system.l2.overall_miss_latency::cpu.inst   1271900500                       # number of overall miss cycles
system.l2.overall_miss_latency::cpu.data 1407364151500                       # number of overall miss cycles
system.l2.overall_miss_latency::total    1408636052000                       # number of overall miss cycles
system.l2.WritebackDirty_accesses::writebacks     16768498                       # number of WritebackDirty accesses(hits+misses)
system.l2.WritebackDirty_accesses::total     16768498                       # number of WritebackDirty accesses(hits+misses)
system.l2.WritebackClean_accesses::writebacks      2809456                       # number of WritebackClean accesses(hits+misses)
system.l2.WritebackClean_accesses::total      2809456                       # number of WritebackClean accesses(hits+misses)
system.l2.ReadExReq_accesses::cpu.data       16673299                       # number of ReadExReq accesses(hits+misses)
system.l2.ReadExReq_accesses::total          16673299                       # number of ReadExReq accesses(hits+misses)
system.l2.ReadCleanReq_accesses::cpu.inst      2810479                       # number of ReadCleanReq accesses(hits+misses)
system.l2.ReadCleanReq_accesses::total        2810479                       # number of ReadCleanReq accesses(hits+misses)
system.l2.ReadSharedReq_accesses::cpu.data       164552                       # number of ReadSharedReq accesses(hits+misses)
system.l2.ReadSharedReq_accesses::total        164552                       # number of ReadSharedReq accesses(hits+misses)
system.l2.demand_accesses::cpu.inst           2810479                       # number of demand (read+write) accesses
system.l2.demand_accesses::cpu.data          16837851                       # number of demand (read+write) accesses
system.l2.demand_accesses::total             19648330                       # number of demand (read+write) accesses
system.l2.overall_accesses::cpu.inst          2810479                       # number of overall (read+write) accesses
system.l2.overall_accesses::cpu.data         16837851                       # number of overall (read+write) accesses
system.l2.overall_accesses::total            19648330                       # number of overall (read+write) accesses
system.l2.ReadExReq_miss_rate::cpu.data      0.995035                       # miss rate for ReadExReq accesses
system.l2.ReadExReq_miss_rate::total         0.995035                       # miss rate for ReadExReq accesses
system.l2.ReadCleanReq_miss_rate::cpu.inst     0.002380                       # miss rate for ReadCleanReq accesses
system.l2.ReadCleanReq_miss_rate::total      0.002380                       # miss rate for ReadCleanReq accesses
system.l2.ReadSharedReq_miss_rate::cpu.data     0.533673                       # miss rate for ReadSharedReq accesses
system.l2.ReadSharedReq_miss_rate::total     0.533673                       # miss rate for ReadSharedReq accesses
system.l2.demand_miss_rate::cpu.inst         0.002380                       # miss rate for demand accesses
system.l2.demand_miss_rate::cpu.data         0.990526                       # miss rate for demand accesses
system.l2.demand_miss_rate::total            0.849183                       # miss rate for demand accesses
system.l2.overall_miss_rate::cpu.inst        0.002380                       # miss rate for overall accesses
system.l2.overall_miss_rate::cpu.data        0.990526                       # miss rate for overall accesses
system.l2.overall_miss_rate::total           0.849183                       # miss rate for overall accesses
system.l2.ReadExReq_avg_miss_latency::cpu.data 83225.584991                       # average ReadExReq miss latency
system.l2.ReadExReq_avg_miss_latency::total 83225.584991                       # average ReadExReq miss latency
system.l2.ReadCleanReq_avg_miss_latency::cpu.inst 190119.656203                       # average ReadCleanReq miss latency
system.l2.ReadCleanReq_avg_miss_latency::total 190119.656203                       # average ReadCleanReq miss latency
system.l2.ReadSharedReq_avg_miss_latency::cpu.data 303006.080827                       # average ReadSharedReq miss latency
system.l2.ReadSharedReq_avg_miss_latency::total 303006.080827                       # average ReadSharedReq miss latency
system.l2.demand_avg_miss_latency::cpu.inst 190119.656203                       # average overall miss latency
system.l2.demand_avg_miss_latency::cpu.data 84382.803067                       # average overall miss latency
system.l2.demand_avg_miss_latency::total 84425.199156                       # average overall miss latency
system.l2.overall_avg_miss_latency::cpu.inst 190119.656203                       # average overall miss latency
system.l2.overall_avg_miss_latency::cpu.data 84382.803067                       # average overall miss latency
system.l2.overall_avg_miss_latency::total 84425.199156                       # average overall miss latency
system.l2.blocked_cycles::no_mshrs                  0                       # number of cycles access was blocked
system.l2.blocked_cycles::no_targets                0                       # number of cycles access was blocked
system.l2.blocked::no_mshrs                         0                       # number of cycles access was blocked
system.l2.blocked::no_targets                       0                       # number of cycles access was blocked
system.l2.avg_blocked_cycles::no_mshrs            nan                       # average number of cycles each access was blocked
system.l2.avg_blocked_cycles::no_targets          nan                       # average number of cycles each access was blocked
system.l2.writebacks::writebacks             16628715                       # number of writebacks
system.l2.writebacks::total                  16628715                       # number of writebacks
system.l2.CleanEvict_mshr_misses::writebacks         7388                       # number of CleanEvict MSHR misses
system.l2.CleanEvict_mshr_misses::total          7388                       # number of CleanEvict MSHR misses
system.l2.ReadExReq_mshr_misses::cpu.data     16590512                       # number of ReadExReq MSHR misses
system.l2.ReadExReq_mshr_misses::total       16590512                       # number of ReadExReq MSHR misses
system.l2.ReadCleanReq_mshr_misses::cpu.inst         6690                       # number of ReadCleanReq MSHR misses
system.l2.ReadCleanReq_mshr_misses::total         6690                       # number of ReadCleanReq MSHR misses
system.l2.ReadSharedReq_mshr_misses::cpu.data        87817                       # number of ReadSharedReq MSHR misses
system.l2.ReadSharedReq_mshr_misses::total        87817                       # number of ReadSharedReq MSHR misses
system.l2.demand_mshr_misses::cpu.inst           6690                       # number of demand (read+write) MSHR misses
system.l2.demand_mshr_misses::cpu.data       16678329                       # number of demand (read+write) MSHR misses
system.l2.demand_mshr_misses::total          16685019                       # number of demand (read+write) MSHR misses
system.l2.overall_mshr_misses::cpu.inst          6690                       # number of overall MSHR misses
system.l2.overall_mshr_misses::cpu.data      16678329                       # number of overall MSHR misses
system.l2.overall_mshr_misses::total         16685019                       # number of overall MSHR misses
system.l2.ReadExReq_mshr_miss_latency::cpu.data 1214849946500                       # number of ReadExReq MSHR miss cycles
system.l2.ReadExReq_mshr_miss_latency::total 1214849946500                       # number of ReadExReq MSHR miss cycles
system.l2.ReadCleanReq_mshr_miss_latency::cpu.inst   1205000500                       # number of ReadCleanReq MSHR miss cycles
system.l2.ReadCleanReq_mshr_miss_latency::total   1205000500                       # number of ReadCleanReq MSHR miss cycles
system.l2.ReadSharedReq_mshr_miss_latency::cpu.data  25730915000                       # number of ReadSharedReq MSHR miss cycles
system.l2.ReadSharedReq_mshr_miss_latency::total  25730915000                       # number of ReadSharedReq MSHR miss cycles
system.l2.demand_mshr_miss_latency::cpu.inst   1205000500                       # number of demand (read+write) MSHR miss cycles
system.l2.demand_mshr_miss_latency::cpu.data 1240580861500                       # number of demand (read+write) MSHR miss cycles
system.l2.demand_mshr_miss_latency::total 1241785862000                       # number of demand (read+write) MSHR miss cycles
system.l2.overall_mshr_miss_latency::cpu.inst   1205000500                       # number of overall MSHR miss cycles
system.l2.overall_mshr_miss_latency::cpu.data 1240580861500                       # number of overall MSHR miss cycles
system.l2.overall_mshr_miss_latency::total 1241785862000                       # number of overall MSHR miss cycles
system.l2.CleanEvict_mshr_miss_rate::writebacks          inf                       # mshr miss rate for CleanEvict accesses
system.l2.CleanEvict_mshr_miss_rate::total          inf                       # mshr miss rate for CleanEvict accesses
system.l2.ReadExReq_mshr_miss_rate::cpu.data     0.995035                       # mshr miss rate for ReadExReq accesses
system.l2.ReadExReq_mshr_miss_rate::total     0.995035                       # mshr miss rate for ReadExReq accesses
system.l2.ReadCleanReq_mshr_miss_rate::cpu.inst     0.002380                       # mshr miss rate for ReadCleanReq accesses
system.l2.ReadCleanReq_mshr_miss_rate::total     0.002380                       # mshr miss rate for ReadCleanReq accesses
system.l2.ReadSharedReq_mshr_miss_rate::cpu.data     0.533673                       # mshr miss rate for ReadSharedReq accesses
system.l2.ReadSharedReq_mshr_miss_rate::total     0.533673                       # mshr miss rate for ReadSharedReq accesses
system.l2.demand_mshr_miss_rate::cpu.inst     0.002380                       # mshr miss rate for demand accesses
system.l2.demand_mshr_miss_rate::cpu.data     0.990526                       # mshr miss rate for demand accesses
system.l2.demand_mshr_miss_rate::total       0.849183                       # mshr miss rate for demand accesses
system.l2.overall_mshr_miss_rate::cpu.inst     0.002380                       # mshr miss rate for overall accesses
system.l2.overall_mshr_miss_rate::cpu.data     0.990526                       # mshr miss rate for overall accesses
system.l2.overall_mshr_miss_rate::total      0.849183                       # mshr miss rate for overall accesses
system.l2.ReadExReq_avg_mshr_miss_latency::cpu.data 73225.584991                       # average ReadExReq mshr miss latency
system.l2.ReadExReq_avg_mshr_miss_latency::total 73225.584991                       # average ReadExReq mshr miss latency
system.l2.ReadCleanReq_avg_mshr_miss_latency::cpu.inst 180119.656203                       # average ReadCleanReq mshr miss latency
system.l2.ReadCleanReq_avg_mshr_miss_latency::total 180119.656203                       # average ReadCleanReq mshr miss latency
system.l2.ReadSharedReq_avg_mshr_miss_latency::cpu.data 293006.080827                       # average ReadSharedReq mshr miss latency
system.l2.ReadSharedReq_avg_mshr_miss_latency::total 293006.080827                       # average ReadSharedReq mshr miss latency
system.l2.demand_avg_mshr_miss_latency::cpu.inst 180119.656203                       # average overall mshr miss latency
system.l2.demand_avg_mshr_miss_latency::cpu.data 74382.803067                       # average overall mshr miss latency
system.l2.demand_avg_mshr_miss_latency::total 74425.199156                       # average overall mshr miss latency
system.l2.overall_avg_mshr_miss_latency::cpu.inst 180119.656203                       # average overall mshr miss latency
system.l2.overall_avg_mshr_miss_latency::cpu.data 74382.803067                       # average overall mshr miss latency
system.l2.overall_avg_mshr_miss_latency::total 74425.199156                       # average overall mshr miss latency
system.membus.snoop_filter.tot_requests      33336702                       # Total number of requests made to the snoop filter.
system.membus.snoop_filter.hit_single_requests     16651683                       # Number of requests hitting in the snoop filter with a single holder of the requested data.
system.membus.snoop_filter.hit_multi_requests            0                       # Number of requests hitting in the snoop filter with multiple (>1) holders of the requested data.
system.membus.snoop_filter.tot_snoops               0                       # Total number of snoops made to the snoop filter.
system.membus.snoop_filter.hit_single_snoops            0                       # Number of snoops hitting in the snoop filter with a single holder of the requested data.
system.membus.snoop_filter.hit_multi_snoops            0                       # Number of snoops hitting in the snoop filter with multiple (>1) holders of the requested data.
system.membus.pwrStateResidencyTicks::UNDEFINED 2416251098500                       # Cumulative time (in ticks) in various power states
system.membus.trans_dist::ReadResp              94507                       # Transaction distribution
system.membus.trans_dist::WritebackDirty     16628715                       # Transaction distribution
system.membus.trans_dist::CleanEvict            22968                       # Transaction distribution
system.membus.trans_dist::ReadExReq          16590512                       # Transaction distribution
system.membus.trans_dist::ReadExResp         16590512                       # Transaction distribution
system.membus.trans_dist::ReadSharedReq         94507                       # Transaction distribution
system.membus.pkt_count_system.l2.mem_side::system.mem_ctrls.port     50021721                       # Packet count per connected master and slave (bytes)
system.membus.pkt_count_system.l2.mem_side::total     50021721                       # Packet count per connected master and slave (bytes)
system.membus.pkt_count::total               50021721                       # Packet count per connected master and slave (bytes)
system.membus.pkt_size_system.l2.mem_side::system.mem_ctrls.port   1066039488                       # Cumulative packet size per connected master and slave (bytes)
system.membus.pkt_size_system.l2.mem_side::total   1066039488                       # Cumulative packet size per connected master and slave (bytes)
system.membus.pkt_size::total              1066039488                       # Cumulative packet size per connected master and slave (bytes)
system.membus.snoops                                0                       # Total snoops (count)
system.membus.snoopTraffic                          0                       # Total snoop traffic (bytes)
system.membus.snoop_fanout::samples          16685019                       # Request fanout histogram
system.membus.snoop_fanout::mean                    0                       # Request fanout histogram
system.membus.snoop_fanout::stdev                   0                       # Request fanout histogram
system.membus.snoop_fanout::underflows              0      0.00%      0.00% # Request fanout histogram
system.membus.snoop_fanout::0                16685019    100.00%    100.00% # Request fanout histogram
system.membus.snoop_fanout::1                       0      0.00%    100.00% # Request fanout histogram
system.membus.snoop_fanout::overflows               0      0.00%    100.00% # Request fanout histogram
system.membus.snoop_fanout::min_value               0                       # Request fanout histogram
system.membus.snoop_fanout::max_value               0                       # Request fanout histogram
system.membus.snoop_fanout::total            16685019                       # Request fanout histogram
system.membus.reqLayer2.occupancy         66594185000                       # Layer occupancy (ticks)
system.membus.reqLayer2.utilization               2.8                       # Layer utilization (%)
system.membus.respLayer1.occupancy        54488025000                       # Layer occupancy (ticks)
system.membus.respLayer1.utilization              2.3                       # Layer utilization (%)
system.tol2bus.snoop_filter.tot_requests     39293589                       # Total number of requests made to the snoop filter.
system.tol2bus.snoop_filter.hit_single_requests     19645259                       # Number of requests hitting in the snoop filter with a single holder of the requested data.
system.tol2bus.snoop_filter.hit_multi_requests            0                       # Number of requests hitting in the snoop filter with multiple (>1) holders of the requested data.
system.tol2bus.snoop_filter.tot_snoops          28171                       # Total number of snoops made to the snoop filter.
system.tol2bus.snoop_filter.hit_single_snoops        28171                       # Number of snoops hitting in the snoop filter with a single holder of the requested data.
system.tol2bus.snoop_filter.hit_multi_snoops            0                       # Number of snoops hitting in the snoop filter with multiple (>1) holders of the requested data.
system.tol2bus.pwrStateResidencyTicks::UNDEFINED 2416251098500                       # Cumulative time (in ticks) in various power states
system.tol2bus.trans_dist::ReadResp           2975031                       # Transaction distribution
system.tol2bus.trans_dist::WritebackDirty     33397213                       # Transaction distribution
system.tol2bus.trans_dist::WritebackClean      2809456                       # Transaction distribution
system.tol2bus.trans_dist::CleanEvict          111056                       # Transaction distribution
system.tol2bus.trans_dist::ReadExReq         16673299                       # Transaction distribution
system.tol2bus.trans_dist::ReadExResp        16673299                       # Transaction distribution
system.tol2bus.trans_dist::ReadCleanReq       2810479                       # Transaction distribution
system.tol2bus.trans_dist::ReadSharedReq       164552                       # Transaction distribution
system.tol2bus.pkt_count_system.cpu.icache.mem_side::system.l2.cpu_side      8430414                       # Packet count per connected master and slave (bytes)
system.tol2bus.pkt_count_system.cpu.dcache.mem_side::system.l2.cpu_side     50511505                       # Packet count per connected master and slave (bytes)
system.tol2bus.pkt_count::total              58941919                       # Packet count per connected master and slave (bytes)
system.tol2bus.pkt_size_system.cpu.icache.mem_side::system.l2.cpu_side    179837920                       # Cumulative packet size per connected master and slave (bytes)
system.tol2bus.pkt_size_system.cpu.dcache.mem_side::system.l2.cpu_side   1075403168                       # Cumulative packet size per connected master and slave (bytes)
system.tol2bus.pkt_size::total             1255241088                       # Cumulative packet size per connected master and slave (bytes)
system.tol2bus.snoops                        16672466                       # Total snoops (count)
system.tol2bus.snoopTraffic                 532118880                       # Total snoop traffic (bytes)
system.tol2bus.snoop_fanout::samples         36320796                       # Request fanout histogram
system.tol2bus.snoop_fanout::mean            0.000776                       # Request fanout histogram
system.tol2bus.snoop_fanout::stdev           0.027839                       # Request fanout histogram
system.tol2bus.snoop_fanout::underflows             0      0.00%      0.00% # Request fanout histogram
system.tol2bus.snoop_fanout::0               36292625     99.92%     99.92% # Request fanout histogram
system.tol2bus.snoop_fanout::1                  28171      0.08%    100.00% # Request fanout histogram
system.tol2bus.snoop_fanout::2                      0      0.00%    100.00% # Request fanout histogram
system.tol2bus.snoop_fanout::3                      0      0.00%    100.00% # Request fanout histogram
system.tol2bus.snoop_fanout::4                      0      0.00%    100.00% # Request fanout histogram
system.tol2bus.snoop_fanout::overflows              0      0.00%    100.00% # Request fanout histogram
system.tol2bus.snoop_fanout::min_value              0                       # Request fanout histogram
system.tol2bus.snoop_fanout::max_value              1                       # Request fanout histogram
system.tol2bus.snoop_fanout::total           36320796                       # Request fanout histogram
system.tol2bus.reqLayer0.occupancy        29435771500                       # Layer occupancy (ticks)
system.tol2bus.reqLayer0.utilization              1.2                       # Layer utilization (%)
system.tol2bus.respLayer0.occupancy        2810479000                       # Layer occupancy (ticks)
system.tol2bus.respLayer0.utilization             0.1                       # Layer utilization (%)
system.tol2bus.respLayer1.occupancy       16837851000                       # Layer occupancy (ticks)
system.tol2bus.respLayer1.utilization             0.7                       # Layer utilization (%)

---------- End Simulation Statistics   ----------
