
---------- Begin Simulation Statistics ----------
sim_seconds                                  0.960159                       # Number of seconds simulated
sim_ticks                                960158640500                       # Number of ticks simulated
final_tick                               960158640500                       # Number of ticks from beginning of simulation (restored from checkpoints and never reset)
sim_freq                                 1000000000000                       # Frequency of simulated ticks
host_inst_rate                                 585803                       # Simulator instruction rate (inst/s)
host_op_rate                                   755429                       # Simulator op (including micro ops) rate (op/s)
host_tick_rate                             1124927321                       # Simulator tick rate (ticks/s)
host_mem_usage                                 668848                       # Number of bytes of host memory used
host_seconds                                   853.53                       # Real time elapsed on the host
sim_insts                                   500000000                       # Number of instructions simulated
sim_ops                                     644780824                       # Number of ops (including micro ops) simulated
system.voltage_domain.voltage                       1                       # Voltage in Volts
system.clk_domain.clock                          1000                       # Clock period in ticks
system.mem_ctrls.pwrStateResidencyTicks::UNDEFINED 960158640500                       # Cumulative time (in ticks) in various power states
system.mem_ctrls.bytes_read::cpu.inst           75936                       # Number of bytes read from this memory
system.mem_ctrls.bytes_read::cpu.data          292992                       # Number of bytes read from this memory
system.mem_ctrls.bytes_read::total             368928                       # Number of bytes read from this memory
system.mem_ctrls.bytes_inst_read::cpu.inst        75936                       # Number of instructions bytes read from this memory
system.mem_ctrls.bytes_inst_read::total         75936                       # Number of instructions bytes read from this memory
system.mem_ctrls.bytes_written::writebacks          992                       # Number of bytes written to this memory
system.mem_ctrls.bytes_written::total             992                       # Number of bytes written to this memory
system.mem_ctrls.num_reads::cpu.inst             2373                       # Number of read requests responded to by this memory
system.mem_ctrls.num_reads::cpu.data             9156                       # Number of read requests responded to by this memory
system.mem_ctrls.num_reads::total               11529                       # Number of read requests responded to by this memory
system.mem_ctrls.num_writes::writebacks            31                       # Number of write requests responded to by this memory
system.mem_ctrls.num_writes::total                 31                       # Number of write requests responded to by this memory
system.mem_ctrls.bw_read::cpu.inst              79087                       # Total read bandwidth from this memory (bytes/s)
system.mem_ctrls.bw_read::cpu.data             305150                       # Total read bandwidth from this memory (bytes/s)
system.mem_ctrls.bw_read::total                384237                       # Total read bandwidth from this memory (bytes/s)
system.mem_ctrls.bw_inst_read::cpu.inst         79087                       # Instruction read bandwidth from this memory (bytes/s)
system.mem_ctrls.bw_inst_read::total            79087                       # Instruction read bandwidth from this memory (bytes/s)
system.mem_ctrls.bw_write::writebacks            1033                       # Write bandwidth from this memory (bytes/s)
system.mem_ctrls.bw_write::total                 1033                       # Write bandwidth from this memory (bytes/s)
system.mem_ctrls.bw_total::writebacks            1033                       # Total bandwidth to/from this memory (bytes/s)
system.mem_ctrls.bw_total::cpu.inst             79087                       # Total bandwidth to/from this memory (bytes/s)
system.mem_ctrls.bw_total::cpu.data            305150                       # Total bandwidth to/from this memory (bytes/s)
system.mem_ctrls.bw_total::total               385270                       # Total bandwidth to/from this memory (bytes/s)
system.mem_ctrls.readReqs                       11529                       # Number of read requests accepted
system.mem_ctrls.writeReqs                         31                       # Number of write requests accepted
system.mem_ctrls.readBursts                     11529                       # Number of DRAM read bursts, including those serviced by the write queue
system.mem_ctrls.writeBursts                       31                       # Number of DRAM write bursts, including those merged in the write queue
system.mem_ctrls.bytesReadDRAM                 737472                       # Total number of bytes read from DRAM
system.mem_ctrls.bytesReadWrQ                     384                       # Total number of bytes read from write queue
system.mem_ctrls.bytesWritten                       0                       # Total number of bytes written to DRAM
system.mem_ctrls.bytesReadSys                  368928                       # Total read bytes from the system interface side
system.mem_ctrls.bytesWrittenSys                  992                       # Total written bytes from the system interface side
system.mem_ctrls.servicedByWrQ                      6                       # Number of DRAM read bursts serviced by the write queue
system.mem_ctrls.mergedWrBursts                     7                       # Number of DRAM write bursts merged with an existing one
system.mem_ctrls.neitherReadNorWriteReqs            0                       # Number of requests that are neither read nor write
system.mem_ctrls.perBankRdBursts::0               607                       # Per bank write bursts
system.mem_ctrls.perBankRdBursts::1               674                       # Per bank write bursts
system.mem_ctrls.perBankRdBursts::2               799                       # Per bank write bursts
system.mem_ctrls.perBankRdBursts::3               610                       # Per bank write bursts
system.mem_ctrls.perBankRdBursts::4               902                       # Per bank write bursts
system.mem_ctrls.perBankRdBursts::5               770                       # Per bank write bursts
system.mem_ctrls.perBankRdBursts::6               660                       # Per bank write bursts
system.mem_ctrls.perBankRdBursts::7               796                       # Per bank write bursts
system.mem_ctrls.perBankRdBursts::8               713                       # Per bank write bursts
system.mem_ctrls.perBankRdBursts::9               714                       # Per bank write bursts
system.mem_ctrls.perBankRdBursts::10              820                       # Per bank write bursts
system.mem_ctrls.perBankRdBursts::11              899                       # Per bank write bursts
system.mem_ctrls.perBankRdBursts::12              702                       # Per bank write bursts
system.mem_ctrls.perBankRdBursts::13              628                       # Per bank write bursts
system.mem_ctrls.perBankRdBursts::14              607                       # Per bank write bursts
system.mem_ctrls.perBankRdBursts::15              622                       # Per bank write bursts
system.mem_ctrls.perBankWrBursts::0                 0                       # Per bank write bursts
system.mem_ctrls.perBankWrBursts::1                 0                       # Per bank write bursts
system.mem_ctrls.perBankWrBursts::2                 0                       # Per bank write bursts
system.mem_ctrls.perBankWrBursts::3                 0                       # Per bank write bursts
system.mem_ctrls.perBankWrBursts::4                 0                       # Per bank write bursts
system.mem_ctrls.perBankWrBursts::5                 0                       # Per bank write bursts
system.mem_ctrls.perBankWrBursts::6                 0                       # Per bank write bursts
system.mem_ctrls.perBankWrBursts::7                 0                       # Per bank write bursts
system.mem_ctrls.perBankWrBursts::8                 0                       # Per bank write bursts
system.mem_ctrls.perBankWrBursts::9                 0                       # Per bank write bursts
system.mem_ctrls.perBankWrBursts::10                0                       # Per bank write bursts
system.mem_ctrls.perBankWrBursts::11                0                       # Per bank write bursts
system.mem_ctrls.perBankWrBursts::12                0                       # Per bank write bursts
system.mem_ctrls.perBankWrBursts::13                0                       # Per bank write bursts
system.mem_ctrls.perBankWrBursts::14                0                       # Per bank write bursts
system.mem_ctrls.perBankWrBursts::15                0                       # Per bank write bursts
system.mem_ctrls.numRdRetry                         0                       # Number of times read queue was full causing retry
system.mem_ctrls.numWrRetry                         0                       # Number of times write queue was full causing retry
system.mem_ctrls.totGap                  522706730500                       # Total gap between requests
system.mem_ctrls.readPktSize::0                     0                       # Read request sizes (log2)
system.mem_ctrls.readPktSize::1                     0                       # Read request sizes (log2)
system.mem_ctrls.readPktSize::2                     0                       # Read request sizes (log2)
system.mem_ctrls.readPktSize::3                     0                       # Read request sizes (log2)
system.mem_ctrls.readPktSize::4                     0                       # Read request sizes (log2)
system.mem_ctrls.readPktSize::5                 11529                       # Read request sizes (log2)
system.mem_ctrls.readPktSize::6                     0                       # Read request sizes (log2)
system.mem_ctrls.writePktSize::0                    0                       # Write request sizes (log2)
system.mem_ctrls.writePktSize::1                    0                       # Write request sizes (log2)
system.mem_ctrls.writePktSize::2                    0                       # Write request sizes (log2)
system.mem_ctrls.writePktSize::3                    0                       # Write request sizes (log2)
system.mem_ctrls.writePktSize::4                    0                       # Write request sizes (log2)
system.mem_ctrls.writePktSize::5                   31                       # Write request sizes (log2)
system.mem_ctrls.writePktSize::6                    0                       # Write request sizes (log2)
system.mem_ctrls.rdQLenPdf::0                   11038                       # What read queue length does an incoming req see
system.mem_ctrls.rdQLenPdf::1                     244                       # What read queue length does an incoming req see
system.mem_ctrls.rdQLenPdf::2                     238                       # What read queue length does an incoming req see
system.mem_ctrls.rdQLenPdf::3                       3                       # What read queue length does an incoming req see
system.mem_ctrls.rdQLenPdf::4                       0                       # What read queue length does an incoming req see
system.mem_ctrls.rdQLenPdf::5                       0                       # What read queue length does an incoming req see
system.mem_ctrls.rdQLenPdf::6                       0                       # What read queue length does an incoming req see
system.mem_ctrls.rdQLenPdf::7                       0                       # What read queue length does an incoming req see
system.mem_ctrls.rdQLenPdf::8                       0                       # What read queue length does an incoming req see
system.mem_ctrls.rdQLenPdf::9                       0                       # What read queue length does an incoming req see
system.mem_ctrls.rdQLenPdf::10                      0                       # What read queue length does an incoming req see
system.mem_ctrls.rdQLenPdf::11                      0                       # What read queue length does an incoming req see
system.mem_ctrls.rdQLenPdf::12                      0                       # What read queue length does an incoming req see
system.mem_ctrls.rdQLenPdf::13                      0                       # What read queue length does an incoming req see
system.mem_ctrls.rdQLenPdf::14                      0                       # What read queue length does an incoming req see
system.mem_ctrls.rdQLenPdf::15                      0                       # What read queue length does an incoming req see
system.mem_ctrls.rdQLenPdf::16                      0                       # What read queue length does an incoming req see
system.mem_ctrls.rdQLenPdf::17                      0                       # What read queue length does an incoming req see
system.mem_ctrls.rdQLenPdf::18                      0                       # What read queue length does an incoming req see
system.mem_ctrls.rdQLenPdf::19                      0                       # What read queue length does an incoming req see
system.mem_ctrls.rdQLenPdf::20                      0                       # What read queue length does an incoming req see
system.mem_ctrls.rdQLenPdf::21                      0                       # What read queue length does an incoming req see
system.mem_ctrls.rdQLenPdf::22                      0                       # What read queue length does an incoming req see
system.mem_ctrls.rdQLenPdf::23                      0                       # What read queue length does an incoming req see
system.mem_ctrls.rdQLenPdf::24                      0                       # What read queue length does an incoming req see
system.mem_ctrls.rdQLenPdf::25                      0                       # What read queue length does an incoming req see
system.mem_ctrls.rdQLenPdf::26                      0                       # What read queue length does an incoming req see
system.mem_ctrls.rdQLenPdf::27                      0                       # What read queue length does an incoming req see
system.mem_ctrls.rdQLenPdf::28                      0                       # What read queue length does an incoming req see
system.mem_ctrls.rdQLenPdf::29                      0                       # What read queue length does an incoming req see
system.mem_ctrls.rdQLenPdf::30                      0                       # What read queue length does an incoming req see
system.mem_ctrls.rdQLenPdf::31                      0                       # What read queue length does an incoming req see
system.mem_ctrls.wrQLenPdf::0                       1                       # What write queue length does an incoming req see
system.mem_ctrls.wrQLenPdf::1                       1                       # What write queue length does an incoming req see
system.mem_ctrls.wrQLenPdf::2                       1                       # What write queue length does an incoming req see
system.mem_ctrls.wrQLenPdf::3                       1                       # What write queue length does an incoming req see
system.mem_ctrls.wrQLenPdf::4                       1                       # What write queue length does an incoming req see
system.mem_ctrls.wrQLenPdf::5                       1                       # What write queue length does an incoming req see
system.mem_ctrls.wrQLenPdf::6                       1                       # What write queue length does an incoming req see
system.mem_ctrls.wrQLenPdf::7                       1                       # What write queue length does an incoming req see
system.mem_ctrls.wrQLenPdf::8                       1                       # What write queue length does an incoming req see
system.mem_ctrls.wrQLenPdf::9                       1                       # What write queue length does an incoming req see
system.mem_ctrls.wrQLenPdf::10                      1                       # What write queue length does an incoming req see
system.mem_ctrls.wrQLenPdf::11                      1                       # What write queue length does an incoming req see
system.mem_ctrls.wrQLenPdf::12                      1                       # What write queue length does an incoming req see
system.mem_ctrls.wrQLenPdf::13                      1                       # What write queue length does an incoming req see
system.mem_ctrls.wrQLenPdf::14                      1                       # What write queue length does an incoming req see
system.mem_ctrls.wrQLenPdf::15                      1                       # What write queue length does an incoming req see
system.mem_ctrls.wrQLenPdf::16                      1                       # What write queue length does an incoming req see
system.mem_ctrls.wrQLenPdf::17                      1                       # What write queue length does an incoming req see
system.mem_ctrls.wrQLenPdf::18                      1                       # What write queue length does an incoming req see
system.mem_ctrls.wrQLenPdf::19                      1                       # What write queue length does an incoming req see
system.mem_ctrls.wrQLenPdf::20                      1                       # What write queue length does an incoming req see
system.mem_ctrls.wrQLenPdf::21                      1                       # What write queue length does an incoming req see
system.mem_ctrls.wrQLenPdf::22                      1                       # What write queue length does an incoming req see
system.mem_ctrls.wrQLenPdf::23                      1                       # What write queue length does an incoming req see
system.mem_ctrls.wrQLenPdf::24                      0                       # What write queue length does an incoming req see
system.mem_ctrls.wrQLenPdf::25                      0                       # What write queue length does an incoming req see
system.mem_ctrls.wrQLenPdf::26                      0                       # What write queue length does an incoming req see
system.mem_ctrls.wrQLenPdf::27                      0                       # What write queue length does an incoming req see
system.mem_ctrls.wrQLenPdf::28                      0                       # What write queue length does an incoming req see
system.mem_ctrls.wrQLenPdf::29                      0                       # What write queue length does an incoming req see
system.mem_ctrls.wrQLenPdf::30                      0                       # What write queue length does an incoming req see
system.mem_ctrls.wrQLenPdf::31                      0                       # What write queue length does an incoming req see
system.mem_ctrls.wrQLenPdf::32                      0                       # What write queue length does an incoming req see
system.mem_ctrls.wrQLenPdf::33                      0                       # What write queue length does an incoming req see
system.mem_ctrls.wrQLenPdf::34                      0                       # What write queue length does an incoming req see
system.mem_ctrls.wrQLenPdf::35                      0                       # What write queue length does an incoming req see
system.mem_ctrls.wrQLenPdf::36                      0                       # What write queue length does an incoming req see
system.mem_ctrls.wrQLenPdf::37                      0                       # What write queue length does an incoming req see
system.mem_ctrls.wrQLenPdf::38                      0                       # What write queue length does an incoming req see
system.mem_ctrls.wrQLenPdf::39                      0                       # What write queue length does an incoming req see
system.mem_ctrls.wrQLenPdf::40                      0                       # What write queue length does an incoming req see
system.mem_ctrls.wrQLenPdf::41                      0                       # What write queue length does an incoming req see
system.mem_ctrls.wrQLenPdf::42                      0                       # What write queue length does an incoming req see
system.mem_ctrls.wrQLenPdf::43                      0                       # What write queue length does an incoming req see
system.mem_ctrls.wrQLenPdf::44                      0                       # What write queue length does an incoming req see
system.mem_ctrls.wrQLenPdf::45                      0                       # What write queue length does an incoming req see
system.mem_ctrls.wrQLenPdf::46                      0                       # What write queue length does an incoming req see
system.mem_ctrls.wrQLenPdf::47                      0                       # What write queue length does an incoming req see
system.mem_ctrls.wrQLenPdf::48                      0                       # What write queue length does an incoming req see
system.mem_ctrls.wrQLenPdf::49                      0                       # What write queue length does an incoming req see
system.mem_ctrls.wrQLenPdf::50                      0                       # What write queue length does an incoming req see
system.mem_ctrls.wrQLenPdf::51                      0                       # What write queue length does an incoming req see
system.mem_ctrls.wrQLenPdf::52                      0                       # What write queue length does an incoming req see
system.mem_ctrls.wrQLenPdf::53                      0                       # What write queue length does an incoming req see
system.mem_ctrls.wrQLenPdf::54                      0                       # What write queue length does an incoming req see
system.mem_ctrls.wrQLenPdf::55                      0                       # What write queue length does an incoming req see
system.mem_ctrls.wrQLenPdf::56                      0                       # What write queue length does an incoming req see
system.mem_ctrls.wrQLenPdf::57                      0                       # What write queue length does an incoming req see
system.mem_ctrls.wrQLenPdf::58                      0                       # What write queue length does an incoming req see
system.mem_ctrls.wrQLenPdf::59                      0                       # What write queue length does an incoming req see
system.mem_ctrls.wrQLenPdf::60                      0                       # What write queue length does an incoming req see
system.mem_ctrls.wrQLenPdf::61                      0                       # What write queue length does an incoming req see
system.mem_ctrls.wrQLenPdf::62                      0                       # What write queue length does an incoming req see
system.mem_ctrls.wrQLenPdf::63                      0                       # What write queue length does an incoming req see
system.mem_ctrls.bytesPerActivate::samples         3064                       # Bytes accessed per row activation
system.mem_ctrls.bytesPerActivate::mean    240.689295                       # Bytes accessed per row activation
system.mem_ctrls.bytesPerActivate::gmean   156.344249                       # Bytes accessed per row activation
system.mem_ctrls.bytesPerActivate::stdev   283.403419                       # Bytes accessed per row activation
system.mem_ctrls.bytesPerActivate::0-127          718     23.43%     23.43% # Bytes accessed per row activation
system.mem_ctrls.bytesPerActivate::128-255         1662     54.24%     77.68% # Bytes accessed per row activation
system.mem_ctrls.bytesPerActivate::256-383          150      4.90%     82.57% # Bytes accessed per row activation
system.mem_ctrls.bytesPerActivate::384-511          102      3.33%     85.90% # Bytes accessed per row activation
system.mem_ctrls.bytesPerActivate::512-639           50      1.63%     87.53% # Bytes accessed per row activation
system.mem_ctrls.bytesPerActivate::640-767           55      1.80%     89.33% # Bytes accessed per row activation
system.mem_ctrls.bytesPerActivate::768-895           42      1.37%     90.70% # Bytes accessed per row activation
system.mem_ctrls.bytesPerActivate::896-1023           20      0.65%     91.35% # Bytes accessed per row activation
system.mem_ctrls.bytesPerActivate::1024-1151          265      8.65%    100.00% # Bytes accessed per row activation
system.mem_ctrls.bytesPerActivate::total         3064                       # Bytes accessed per row activation
system.mem_ctrls.totQLat                    201643500                       # Total ticks spent queuing
system.mem_ctrls.totMemAccLat               417699750                       # Total ticks spent from burst creation until serviced by the DRAM
system.mem_ctrls.totBusLat                   57615000                       # Total ticks spent in databus transfers
system.mem_ctrls.avgQLat                     17499.22                       # Average queueing delay per DRAM burst
system.mem_ctrls.avgBusLat                    5000.00                       # Average bus latency per DRAM burst
system.mem_ctrls.avgMemAccLat                36249.22                       # Average memory access latency per DRAM burst
system.mem_ctrls.avgRdBW                         0.77                       # Average DRAM read bandwidth in MiByte/s
system.mem_ctrls.avgWrBW                         0.00                       # Average achieved write bandwidth in MiByte/s
system.mem_ctrls.avgRdBWSys                      0.38                       # Average system read bandwidth in MiByte/s
system.mem_ctrls.avgWrBWSys                      0.00                       # Average system write bandwidth in MiByte/s
system.mem_ctrls.peakBW                      12800.00                       # Theoretical peak bandwidth in MiByte/s
system.mem_ctrls.busUtil                         0.01                       # Data bus utilization in percentage
system.mem_ctrls.busUtilRead                     0.01                       # Data bus utilization in percentage for reads
system.mem_ctrls.busUtilWrite                    0.00                       # Data bus utilization in percentage for writes
system.mem_ctrls.avgRdQLen                       1.00                       # Average read queue length when enqueuing
system.mem_ctrls.avgWrQLen                      23.69                       # Average write queue length when enqueuing
system.mem_ctrls.readRowHits                     8459                       # Number of row buffer hits during reads
system.mem_ctrls.writeRowHits                       0                       # Number of row buffer hits during writes
system.mem_ctrls.readRowHitRate                 73.41                       # Row buffer hit rate for reads
system.mem_ctrls.writeRowHitRate                 0.00                       # Row buffer hit rate for writes
system.mem_ctrls.avgGap                   45216845.20                       # Average gap between requests
system.mem_ctrls.pageHitRate                    73.26                       # Row buffer hit rate, read and write combined
system.mem_ctrls_0.actEnergy                 10588620                       # Energy for activate commands per rank (pJ)
system.mem_ctrls_0.preEnergy                  5627985                       # Energy for precharge commands per rank (pJ)
system.mem_ctrls_0.readEnergy                41540520                       # Energy for read commands per rank (pJ)
system.mem_ctrls_0.writeEnergy                      0                       # Energy for write commands per rank (pJ)
system.mem_ctrls_0.refreshEnergy         456062880.000000                       # Energy for refresh commands per rank (pJ)
system.mem_ctrls_0.actBackEnergy            157581060                       # Energy for active background per rank (pJ)
system.mem_ctrls_0.preBackEnergy             13647840                       # Energy for precharge background per rank (pJ)
system.mem_ctrls_0.actPowerDownEnergy      1811289570                       # Energy for active power-down per rank (pJ)
system.mem_ctrls_0.prePowerDownEnergy       441141120                       # Energy for precharge power-down per rank (pJ)
system.mem_ctrls_0.selfRefreshEnergy     229138597425                       # Energy for self refresh per rank (pJ)
system.mem_ctrls_0.totalEnergy           232076125050                       # Total energy per rank (pJ)
system.mem_ctrls_0.averagePower            241.706021                       # Core power per rank (mW)
system.mem_ctrls_0.totalIdleTime         522338738750                       # Total Idle time Per DRAM Rank
system.mem_ctrls_0.memoryStateTime::IDLE     14483500                       # Time in different power states
system.mem_ctrls_0.memoryStateTime::REF     193160000                       # Time in different power states
system.mem_ctrls_0.memoryStateTime::SREF 954656486500                       # Time in different power states
system.mem_ctrls_0.memoryStateTime::PRE_PDN   1148920500                       # Time in different power states
system.mem_ctrls_0.memoryStateTime::ACT     173575000                       # Time in different power states
system.mem_ctrls_0.memoryStateTime::ACT_PDN   3972015000                       # Time in different power states
system.mem_ctrls_1.actEnergy                 11288340                       # Energy for activate commands per rank (pJ)
system.mem_ctrls_1.preEnergy                  5999895                       # Energy for precharge commands per rank (pJ)
system.mem_ctrls_1.readEnergy                40733700                       # Energy for read commands per rank (pJ)
system.mem_ctrls_1.writeEnergy                      0                       # Energy for write commands per rank (pJ)
system.mem_ctrls_1.refreshEnergy         417340560.000000                       # Energy for refresh commands per rank (pJ)
system.mem_ctrls_1.actBackEnergy            151491750                       # Energy for active background per rank (pJ)
system.mem_ctrls_1.preBackEnergy             12948960                       # Energy for precharge background per rank (pJ)
system.mem_ctrls_1.actPowerDownEnergy      1678003050                       # Energy for active power-down per rank (pJ)
system.mem_ctrls_1.prePowerDownEnergy       370884480                       # Energy for precharge power-down per rank (pJ)
system.mem_ctrls_1.selfRefreshEnergy     229256271120                       # Energy for self refresh per rank (pJ)
system.mem_ctrls_1.totalEnergy           231944961855                       # Total energy per rank (pJ)
system.mem_ctrls_1.averagePower            241.569416                       # Core power per rank (mW)
system.mem_ctrls_1.totalIdleTime          16395208500                       # Total Idle time Per DRAM Rank
system.mem_ctrls_1.memoryStateTime::IDLE     14878000                       # Time in different power states
system.mem_ctrls_1.memoryStateTime::REF     176774000                       # Time in different power states
system.mem_ctrls_1.memoryStateTime::SREF 955147020250                       # Time in different power states
system.mem_ctrls_1.memoryStateTime::PRE_PDN    965689000                       # Time in different power states
system.mem_ctrls_1.memoryStateTime::ACT     174441000                       # Time in different power states
system.mem_ctrls_1.memoryStateTime::ACT_PDN   3679838250                       # Time in different power states
system.pwrStateResidencyTicks::UNDEFINED 960158640500                       # Cumulative time (in ticks) in various power states
system.cpu_voltage_domain.voltage                   1                       # Voltage in Volts
system.cpu_clk_domain.clock                       500                       # Clock period in ticks
system.cpu.dtb.walker.pwrStateResidencyTicks::UNDEFINED 960158640500                       # Cumulative time (in ticks) in various power states
system.cpu.apic_clk_domain.clock                 8000                       # Clock period in ticks
system.cpu.interrupts.pwrStateResidencyTicks::UNDEFINED 960158640500                       # Cumulative time (in ticks) in various power states
system.cpu.itb.walker.pwrStateResidencyTicks::UNDEFINED 960158640500                       # Cumulative time (in ticks) in various power states
system.cpu.workload.num_syscalls                   34                       # Number of system calls
system.cpu.pwrStateResidencyTicks::ON    960158640500                       # Cumulative time (in ticks) in various power states
system.cpu.numCycles                       1920317281                       # number of cpu cycles simulated
system.cpu.numWorkItemsStarted                      0                       # number of work items this cpu started
system.cpu.numWorkItemsCompleted                    0                       # number of work items this cpu completed
system.cpu.committedInsts                   500000000                       # Number of instructions committed
system.cpu.committedOps                     644780824                       # Number of ops (including micro ops) committed
system.cpu.num_int_alu_accesses             625781845                       # Number of integer alu accesses
system.cpu.num_fp_alu_accesses               27680885                       # Number of float alu accesses
system.cpu.num_func_calls                     1532449                       # number of times a function call or return occured
system.cpu.num_conditional_control_insts     25288260                       # number of instructions that are conditional controls
system.cpu.num_int_insts                    625781845                       # number of integer instructions
system.cpu.num_fp_insts                      27680885                       # number of float instructions
system.cpu.num_int_register_reads          1467255983                       # number of times the integer registers were read
system.cpu.num_int_register_writes          569426959                       # number of times the integer registers were written
system.cpu.num_fp_register_reads             21886167                       # number of times the floating registers were read
system.cpu.num_fp_register_writes            23676651                       # number of times the floating registers were written
system.cpu.num_cc_register_reads            187287140                       # number of times the CC registers were read
system.cpu.num_cc_register_writes           260710310                       # number of times the CC registers were written
system.cpu.num_mem_refs                     254811579                       # number of memory refs
system.cpu.num_load_insts                   219158147                       # Number of load instructions
system.cpu.num_store_insts                   35653432                       # Number of store instructions
system.cpu.num_idle_cycles                          0                       # Number of idle cycles
system.cpu.num_busy_cycles                 1920317281                       # Number of busy cycles
system.cpu.not_idle_fraction                        1                       # Percentage of non-idle cycles
system.cpu.idle_fraction                            0                       # Percentage of idle cycles
system.cpu.Branches                          27593151                       # Number of branches fetched
system.cpu.op_class::No_OpClass               1477149      0.23%      0.23% # Class of executed instruction
system.cpu.op_class::IntAlu                 363712896     56.41%     56.64% # Class of executed instruction
system.cpu.op_class::IntMult                   612864      0.10%     56.73% # Class of executed instruction
system.cpu.op_class::IntDiv                   6327906      0.98%     57.71% # Class of executed instruction
system.cpu.op_class::FloatAdd                17838430      2.77%     60.48% # Class of executed instruction
system.cpu.op_class::FloatCmp                       0      0.00%     60.48% # Class of executed instruction
system.cpu.op_class::FloatCvt                       0      0.00%     60.48% # Class of executed instruction
system.cpu.op_class::FloatMult                      0      0.00%     60.48% # Class of executed instruction
system.cpu.op_class::FloatDiv                       0      0.00%     60.48% # Class of executed instruction
system.cpu.op_class::FloatSqrt                      0      0.00%     60.48% # Class of executed instruction
system.cpu.op_class::SimdAdd                        0      0.00%     60.48% # Class of executed instruction
system.cpu.op_class::SimdAddAcc                     0      0.00%     60.48% # Class of executed instruction
system.cpu.op_class::SimdAlu                        0      0.00%     60.48% # Class of executed instruction
system.cpu.op_class::SimdCmp                        0      0.00%     60.48% # Class of executed instruction
system.cpu.op_class::SimdCvt                        0      0.00%     60.48% # Class of executed instruction
system.cpu.op_class::SimdMisc                       0      0.00%     60.48% # Class of executed instruction
system.cpu.op_class::SimdMult                       0      0.00%     60.48% # Class of executed instruction
system.cpu.op_class::SimdMultAcc                    0      0.00%     60.48% # Class of executed instruction
system.cpu.op_class::SimdShift                      0      0.00%     60.48% # Class of executed instruction
system.cpu.op_class::SimdShiftAcc                   0      0.00%     60.48% # Class of executed instruction
system.cpu.op_class::SimdSqrt                       0      0.00%     60.48% # Class of executed instruction
system.cpu.op_class::SimdFloatAdd                   0      0.00%     60.48% # Class of executed instruction
system.cpu.op_class::SimdFloatAlu                   0      0.00%     60.48% # Class of executed instruction
system.cpu.op_class::SimdFloatCmp                   0      0.00%     60.48% # Class of executed instruction
system.cpu.op_class::SimdFloatCvt                   0      0.00%     60.48% # Class of executed instruction
system.cpu.op_class::SimdFloatDiv                   0      0.00%     60.48% # Class of executed instruction
system.cpu.op_class::SimdFloatMisc                  0      0.00%     60.48% # Class of executed instruction
system.cpu.op_class::SimdFloatMult                  0      0.00%     60.48% # Class of executed instruction
system.cpu.op_class::SimdFloatMultAcc               0      0.00%     60.48% # Class of executed instruction
system.cpu.op_class::SimdFloatSqrt                  0      0.00%     60.48% # Class of executed instruction
system.cpu.op_class::MemRead                219158147     33.99%     94.47% # Class of executed instruction
system.cpu.op_class::MemWrite                35653432      5.53%    100.00% # Class of executed instruction
system.cpu.op_class::IprAccess                      0      0.00%    100.00% # Class of executed instruction
system.cpu.op_class::InstPrefetch                   0      0.00%    100.00% # Class of executed instruction
system.cpu.op_class::total                  644780824                       # Class of executed instruction
system.cpu.dcache.tags.pwrStateResidencyTicks::UNDEFINED 960158640500                       # Cumulative time (in ticks) in various power states
system.cpu.dcache.tags.replacements            706650                       # number of replacements
system.cpu.dcache.tags.tagsinuse          2046.216975                       # Cycle average of tags in use
system.cpu.dcache.tags.total_refs           254104523                       # Total number of references to valid blocks.
system.cpu.dcache.tags.sampled_refs            708698                       # Sample count of references to valid blocks.
system.cpu.dcache.tags.avg_refs            358.551207                       # Average number of references to valid blocks.
system.cpu.dcache.tags.warmup_cycle        4016325500                       # Cycle when the warmup percentage was hit.
system.cpu.dcache.tags.occ_blocks::cpu.data  2046.216975                       # Average occupied blocks per requestor
system.cpu.dcache.tags.occ_percent::cpu.data     0.999129                       # Average percentage of cache occupancy
system.cpu.dcache.tags.occ_percent::total     0.999129                       # Average percentage of cache occupancy
system.cpu.dcache.tags.occ_task_id_blocks::1024         2048                       # Occupied blocks per task id
system.cpu.dcache.tags.age_task_id_blocks_1024::0           10                       # Occupied blocks per task id
system.cpu.dcache.tags.age_task_id_blocks_1024::1           98                       # Occupied blocks per task id
system.cpu.dcache.tags.age_task_id_blocks_1024::2          950                       # Occupied blocks per task id
system.cpu.dcache.tags.age_task_id_blocks_1024::3          854                       # Occupied blocks per task id
system.cpu.dcache.tags.age_task_id_blocks_1024::4          136                       # Occupied blocks per task id
system.cpu.dcache.tags.occ_task_id_percent::1024            1                       # Percentage of cache occupancy per task id
system.cpu.dcache.tags.tag_accesses        1019961582                       # Number of tag accesses
system.cpu.dcache.tags.data_accesses       1019961582                       # Number of data accesses
system.cpu.dcache.pwrStateResidencyTicks::UNDEFINED 960158640500                       # Cumulative time (in ticks) in various power states
system.cpu.dcache.ReadReq_hits::cpu.data    218997218                       # number of ReadReq hits
system.cpu.dcache.ReadReq_hits::total       218997218                       # number of ReadReq hits
system.cpu.dcache.WriteReq_hits::cpu.data     35107302                       # number of WriteReq hits
system.cpu.dcache.WriteReq_hits::total       35107302                       # number of WriteReq hits
system.cpu.dcache.SoftPFReq_hits::cpu.data            3                       # number of SoftPFReq hits
system.cpu.dcache.SoftPFReq_hits::total             3                       # number of SoftPFReq hits
system.cpu.dcache.demand_hits::cpu.data     254104520                       # number of demand (read+write) hits
system.cpu.dcache.demand_hits::total        254104520                       # number of demand (read+write) hits
system.cpu.dcache.overall_hits::cpu.data    254104523                       # number of overall hits
system.cpu.dcache.overall_hits::total       254104523                       # number of overall hits
system.cpu.dcache.ReadReq_misses::cpu.data       160252                       # number of ReadReq misses
system.cpu.dcache.ReadReq_misses::total        160252                       # number of ReadReq misses
system.cpu.dcache.WriteReq_misses::cpu.data       546225                       # number of WriteReq misses
system.cpu.dcache.WriteReq_misses::total       546225                       # number of WriteReq misses
system.cpu.dcache.SoftPFReq_misses::cpu.data         2221                       # number of SoftPFReq misses
system.cpu.dcache.SoftPFReq_misses::total         2221                       # number of SoftPFReq misses
system.cpu.dcache.demand_misses::cpu.data       706477                       # number of demand (read+write) misses
system.cpu.dcache.demand_misses::total         706477                       # number of demand (read+write) misses
system.cpu.dcache.overall_misses::cpu.data       708698                       # number of overall misses
system.cpu.dcache.overall_misses::total        708698                       # number of overall misses
system.cpu.dcache.ReadReq_miss_latency::cpu.data   2186519500                       # number of ReadReq miss cycles
system.cpu.dcache.ReadReq_miss_latency::total   2186519500                       # number of ReadReq miss cycles
system.cpu.dcache.WriteReq_miss_latency::cpu.data   7661160500                       # number of WriteReq miss cycles
system.cpu.dcache.WriteReq_miss_latency::total   7661160500                       # number of WriteReq miss cycles
system.cpu.dcache.demand_miss_latency::cpu.data   9847680000                       # number of demand (read+write) miss cycles
system.cpu.dcache.demand_miss_latency::total   9847680000                       # number of demand (read+write) miss cycles
system.cpu.dcache.overall_miss_latency::cpu.data   9847680000                       # number of overall miss cycles
system.cpu.dcache.overall_miss_latency::total   9847680000                       # number of overall miss cycles
system.cpu.dcache.ReadReq_accesses::cpu.data    219157470                       # number of ReadReq accesses(hits+misses)
system.cpu.dcache.ReadReq_accesses::total    219157470                       # number of ReadReq accesses(hits+misses)
system.cpu.dcache.WriteReq_accesses::cpu.data     35653527                       # number of WriteReq accesses(hits+misses)
system.cpu.dcache.WriteReq_accesses::total     35653527                       # number of WriteReq accesses(hits+misses)
system.cpu.dcache.SoftPFReq_accesses::cpu.data         2224                       # number of SoftPFReq accesses(hits+misses)
system.cpu.dcache.SoftPFReq_accesses::total         2224                       # number of SoftPFReq accesses(hits+misses)
system.cpu.dcache.demand_accesses::cpu.data    254810997                       # number of demand (read+write) accesses
system.cpu.dcache.demand_accesses::total    254810997                       # number of demand (read+write) accesses
system.cpu.dcache.overall_accesses::cpu.data    254813221                       # number of overall (read+write) accesses
system.cpu.dcache.overall_accesses::total    254813221                       # number of overall (read+write) accesses
system.cpu.dcache.ReadReq_miss_rate::cpu.data     0.000731                       # miss rate for ReadReq accesses
system.cpu.dcache.ReadReq_miss_rate::total     0.000731                       # miss rate for ReadReq accesses
system.cpu.dcache.WriteReq_miss_rate::cpu.data     0.015320                       # miss rate for WriteReq accesses
system.cpu.dcache.WriteReq_miss_rate::total     0.015320                       # miss rate for WriteReq accesses
system.cpu.dcache.SoftPFReq_miss_rate::cpu.data     0.998651                       # miss rate for SoftPFReq accesses
system.cpu.dcache.SoftPFReq_miss_rate::total     0.998651                       # miss rate for SoftPFReq accesses
system.cpu.dcache.demand_miss_rate::cpu.data     0.002773                       # miss rate for demand accesses
system.cpu.dcache.demand_miss_rate::total     0.002773                       # miss rate for demand accesses
system.cpu.dcache.overall_miss_rate::cpu.data     0.002781                       # miss rate for overall accesses
system.cpu.dcache.overall_miss_rate::total     0.002781                       # miss rate for overall accesses
system.cpu.dcache.ReadReq_avg_miss_latency::cpu.data 13644.257170                       # average ReadReq miss latency
system.cpu.dcache.ReadReq_avg_miss_latency::total 13644.257170                       # average ReadReq miss latency
system.cpu.dcache.WriteReq_avg_miss_latency::cpu.data 14025.649686                       # average WriteReq miss latency
system.cpu.dcache.WriteReq_avg_miss_latency::total 14025.649686                       # average WriteReq miss latency
system.cpu.dcache.demand_avg_miss_latency::cpu.data 13939.137438                       # average overall miss latency
system.cpu.dcache.demand_avg_miss_latency::total 13939.137438                       # average overall miss latency
system.cpu.dcache.overall_avg_miss_latency::cpu.data 13895.453352                       # average overall miss latency
system.cpu.dcache.overall_avg_miss_latency::total 13895.453352                       # average overall miss latency
system.cpu.dcache.blocked_cycles::no_mshrs         1622                       # number of cycles access was blocked
system.cpu.dcache.blocked_cycles::no_targets            0                       # number of cycles access was blocked
system.cpu.dcache.blocked::no_mshrs                 5                       # number of cycles access was blocked
system.cpu.dcache.blocked::no_targets               0                       # number of cycles access was blocked
system.cpu.dcache.avg_blocked_cycles::no_mshrs   324.400000                       # average number of cycles each access was blocked
system.cpu.dcache.avg_blocked_cycles::no_targets          nan                       # average number of cycles each access was blocked
system.cpu.dcache.writebacks::writebacks       700103                       # number of writebacks
system.cpu.dcache.writebacks::total            700103                       # number of writebacks
system.cpu.dcache.ReadReq_mshr_misses::cpu.data       160252                       # number of ReadReq MSHR misses
system.cpu.dcache.ReadReq_mshr_misses::total       160252                       # number of ReadReq MSHR misses
system.cpu.dcache.WriteReq_mshr_misses::cpu.data       546225                       # number of WriteReq MSHR misses
system.cpu.dcache.WriteReq_mshr_misses::total       546225                       # number of WriteReq MSHR misses
system.cpu.dcache.SoftPFReq_mshr_misses::cpu.data         2221                       # number of SoftPFReq MSHR misses
system.cpu.dcache.SoftPFReq_mshr_misses::total         2221                       # number of SoftPFReq MSHR misses
system.cpu.dcache.demand_mshr_misses::cpu.data       706477                       # number of demand (read+write) MSHR misses
system.cpu.dcache.demand_mshr_misses::total       706477                       # number of demand (read+write) MSHR misses
system.cpu.dcache.overall_mshr_misses::cpu.data       708698                       # number of overall MSHR misses
system.cpu.dcache.overall_mshr_misses::total       708698                       # number of overall MSHR misses
system.cpu.dcache.ReadReq_mshr_miss_latency::cpu.data   2026267500                       # number of ReadReq MSHR miss cycles
system.cpu.dcache.ReadReq_mshr_miss_latency::total   2026267500                       # number of ReadReq MSHR miss cycles
system.cpu.dcache.WriteReq_mshr_miss_latency::cpu.data   7114935500                       # number of WriteReq MSHR miss cycles
system.cpu.dcache.WriteReq_mshr_miss_latency::total   7114935500                       # number of WriteReq MSHR miss cycles
system.cpu.dcache.SoftPFReq_mshr_miss_latency::cpu.data     65117000                       # number of SoftPFReq MSHR miss cycles
system.cpu.dcache.SoftPFReq_mshr_miss_latency::total     65117000                       # number of SoftPFReq MSHR miss cycles
system.cpu.dcache.demand_mshr_miss_latency::cpu.data   9141203000                       # number of demand (read+write) MSHR miss cycles
system.cpu.dcache.demand_mshr_miss_latency::total   9141203000                       # number of demand (read+write) MSHR miss cycles
system.cpu.dcache.overall_mshr_miss_latency::cpu.data   9206320000                       # number of overall MSHR miss cycles
system.cpu.dcache.overall_mshr_miss_latency::total   9206320000                       # number of overall MSHR miss cycles
system.cpu.dcache.ReadReq_mshr_miss_rate::cpu.data     0.000731                       # mshr miss rate for ReadReq accesses
system.cpu.dcache.ReadReq_mshr_miss_rate::total     0.000731                       # mshr miss rate for ReadReq accesses
system.cpu.dcache.WriteReq_mshr_miss_rate::cpu.data     0.015320                       # mshr miss rate for WriteReq accesses
system.cpu.dcache.WriteReq_mshr_miss_rate::total     0.015320                       # mshr miss rate for WriteReq accesses
system.cpu.dcache.SoftPFReq_mshr_miss_rate::cpu.data     0.998651                       # mshr miss rate for SoftPFReq accesses
system.cpu.dcache.SoftPFReq_mshr_miss_rate::total     0.998651                       # mshr miss rate for SoftPFReq accesses
system.cpu.dcache.demand_mshr_miss_rate::cpu.data     0.002773                       # mshr miss rate for demand accesses
system.cpu.dcache.demand_mshr_miss_rate::total     0.002773                       # mshr miss rate for demand accesses
system.cpu.dcache.overall_mshr_miss_rate::cpu.data     0.002781                       # mshr miss rate for overall accesses
system.cpu.dcache.overall_mshr_miss_rate::total     0.002781                       # mshr miss rate for overall accesses
system.cpu.dcache.ReadReq_avg_mshr_miss_latency::cpu.data 12644.257170                       # average ReadReq mshr miss latency
system.cpu.dcache.ReadReq_avg_mshr_miss_latency::total 12644.257170                       # average ReadReq mshr miss latency
system.cpu.dcache.WriteReq_avg_mshr_miss_latency::cpu.data 13025.649686                       # average WriteReq mshr miss latency
system.cpu.dcache.WriteReq_avg_mshr_miss_latency::total 13025.649686                       # average WriteReq mshr miss latency
system.cpu.dcache.SoftPFReq_avg_mshr_miss_latency::cpu.data 29318.775326                       # average SoftPFReq mshr miss latency
system.cpu.dcache.SoftPFReq_avg_mshr_miss_latency::total 29318.775326                       # average SoftPFReq mshr miss latency
system.cpu.dcache.demand_avg_mshr_miss_latency::cpu.data 12939.137438                       # average overall mshr miss latency
system.cpu.dcache.demand_avg_mshr_miss_latency::total 12939.137438                       # average overall mshr miss latency
system.cpu.dcache.overall_avg_mshr_miss_latency::cpu.data 12990.469848                       # average overall mshr miss latency
system.cpu.dcache.overall_avg_mshr_miss_latency::total 12990.469848                       # average overall mshr miss latency
system.cpu.dtb_walker_cache.tags.pwrStateResidencyTicks::UNDEFINED 960158640500                       # Cumulative time (in ticks) in various power states
system.cpu.dtb_walker_cache.tags.replacements            0                       # number of replacements
system.cpu.dtb_walker_cache.tags.tagsinuse            0                       # Cycle average of tags in use
system.cpu.dtb_walker_cache.tags.total_refs            0                       # Total number of references to valid blocks.
system.cpu.dtb_walker_cache.tags.sampled_refs            0                       # Sample count of references to valid blocks.
system.cpu.dtb_walker_cache.tags.avg_refs          nan                       # Average number of references to valid blocks.
system.cpu.dtb_walker_cache.tags.warmup_cycle            0                       # Cycle when the warmup percentage was hit.
system.cpu.dtb_walker_cache.tags.tag_accesses            0                       # Number of tag accesses
system.cpu.dtb_walker_cache.tags.data_accesses            0                       # Number of data accesses
system.cpu.dtb_walker_cache.pwrStateResidencyTicks::UNDEFINED 960158640500                       # Cumulative time (in ticks) in various power states
system.cpu.dtb_walker_cache.blocked_cycles::no_mshrs            0                       # number of cycles access was blocked
system.cpu.dtb_walker_cache.blocked_cycles::no_targets            0                       # number of cycles access was blocked
system.cpu.dtb_walker_cache.blocked::no_mshrs            0                       # number of cycles access was blocked
system.cpu.dtb_walker_cache.blocked::no_targets            0                       # number of cycles access was blocked
system.cpu.dtb_walker_cache.avg_blocked_cycles::no_mshrs          nan                       # average number of cycles each access was blocked
system.cpu.dtb_walker_cache.avg_blocked_cycles::no_targets          nan                       # average number of cycles each access was blocked
system.cpu.icache.tags.pwrStateResidencyTicks::UNDEFINED 960158640500                       # Cumulative time (in ticks) in various power states
system.cpu.icache.tags.replacements              1508                       # number of replacements
system.cpu.icache.tags.tagsinuse          1021.872603                       # Cycle average of tags in use
system.cpu.icache.tags.total_refs           695990700                       # Total number of references to valid blocks.
system.cpu.icache.tags.sampled_refs              2530                       # Sample count of references to valid blocks.
system.cpu.icache.tags.avg_refs          275095.138340                       # Average number of references to valid blocks.
system.cpu.icache.tags.warmup_cycle                 0                       # Cycle when the warmup percentage was hit.
system.cpu.icache.tags.occ_blocks::cpu.inst  1021.872603                       # Average occupied blocks per requestor
system.cpu.icache.tags.occ_percent::cpu.inst     0.997922                       # Average percentage of cache occupancy
system.cpu.icache.tags.occ_percent::total     0.997922                       # Average percentage of cache occupancy
system.cpu.icache.tags.occ_task_id_blocks::1024         1022                       # Occupied blocks per task id
system.cpu.icache.tags.age_task_id_blocks_1024::4         1022                       # Occupied blocks per task id
system.cpu.icache.tags.occ_task_id_percent::1024     0.998047                       # Percentage of cache occupancy per task id
system.cpu.icache.tags.tag_accesses        2783975450                       # Number of tag accesses
system.cpu.icache.tags.data_accesses       2783975450                       # Number of data accesses
system.cpu.icache.pwrStateResidencyTicks::UNDEFINED 960158640500                       # Cumulative time (in ticks) in various power states
system.cpu.icache.ReadReq_hits::cpu.inst    695990700                       # number of ReadReq hits
system.cpu.icache.ReadReq_hits::total       695990700                       # number of ReadReq hits
system.cpu.icache.demand_hits::cpu.inst     695990700                       # number of demand (read+write) hits
system.cpu.icache.demand_hits::total        695990700                       # number of demand (read+write) hits
system.cpu.icache.overall_hits::cpu.inst    695990700                       # number of overall hits
system.cpu.icache.overall_hits::total       695990700                       # number of overall hits
system.cpu.icache.ReadReq_misses::cpu.inst         2530                       # number of ReadReq misses
system.cpu.icache.ReadReq_misses::total          2530                       # number of ReadReq misses
system.cpu.icache.demand_misses::cpu.inst         2530                       # number of demand (read+write) misses
system.cpu.icache.demand_misses::total           2530                       # number of demand (read+write) misses
system.cpu.icache.overall_misses::cpu.inst         2530                       # number of overall misses
system.cpu.icache.overall_misses::total          2530                       # number of overall misses
system.cpu.icache.ReadReq_miss_latency::cpu.inst    213550000                       # number of ReadReq miss cycles
system.cpu.icache.ReadReq_miss_latency::total    213550000                       # number of ReadReq miss cycles
system.cpu.icache.demand_miss_latency::cpu.inst    213550000                       # number of demand (read+write) miss cycles
system.cpu.icache.demand_miss_latency::total    213550000                       # number of demand (read+write) miss cycles
system.cpu.icache.overall_miss_latency::cpu.inst    213550000                       # number of overall miss cycles
system.cpu.icache.overall_miss_latency::total    213550000                       # number of overall miss cycles
system.cpu.icache.ReadReq_accesses::cpu.inst    695993230                       # number of ReadReq accesses(hits+misses)
system.cpu.icache.ReadReq_accesses::total    695993230                       # number of ReadReq accesses(hits+misses)
system.cpu.icache.demand_accesses::cpu.inst    695993230                       # number of demand (read+write) accesses
system.cpu.icache.demand_accesses::total    695993230                       # number of demand (read+write) accesses
system.cpu.icache.overall_accesses::cpu.inst    695993230                       # number of overall (read+write) accesses
system.cpu.icache.overall_accesses::total    695993230                       # number of overall (read+write) accesses
system.cpu.icache.ReadReq_miss_rate::cpu.inst     0.000004                       # miss rate for ReadReq accesses
system.cpu.icache.ReadReq_miss_rate::total     0.000004                       # miss rate for ReadReq accesses
system.cpu.icache.demand_miss_rate::cpu.inst     0.000004                       # miss rate for demand accesses
system.cpu.icache.demand_miss_rate::total     0.000004                       # miss rate for demand accesses
system.cpu.icache.overall_miss_rate::cpu.inst     0.000004                       # miss rate for overall accesses
system.cpu.icache.overall_miss_rate::total     0.000004                       # miss rate for overall accesses
system.cpu.icache.ReadReq_avg_miss_latency::cpu.inst 84407.114625                       # average ReadReq miss latency
system.cpu.icache.ReadReq_avg_miss_latency::total 84407.114625                       # average ReadReq miss latency
system.cpu.icache.demand_avg_miss_latency::cpu.inst 84407.114625                       # average overall miss latency
system.cpu.icache.demand_avg_miss_latency::total 84407.114625                       # average overall miss latency
system.cpu.icache.overall_avg_miss_latency::cpu.inst 84407.114625                       # average overall miss latency
system.cpu.icache.overall_avg_miss_latency::total 84407.114625                       # average overall miss latency
system.cpu.icache.blocked_cycles::no_mshrs            0                       # number of cycles access was blocked
system.cpu.icache.blocked_cycles::no_targets            0                       # number of cycles access was blocked
system.cpu.icache.blocked::no_mshrs                 0                       # number of cycles access was blocked
system.cpu.icache.blocked::no_targets               0                       # number of cycles access was blocked
system.cpu.icache.avg_blocked_cycles::no_mshrs          nan                       # average number of cycles each access was blocked
system.cpu.icache.avg_blocked_cycles::no_targets          nan                       # average number of cycles each access was blocked
system.cpu.icache.writebacks::writebacks         1508                       # number of writebacks
system.cpu.icache.writebacks::total              1508                       # number of writebacks
system.cpu.icache.ReadReq_mshr_misses::cpu.inst         2530                       # number of ReadReq MSHR misses
system.cpu.icache.ReadReq_mshr_misses::total         2530                       # number of ReadReq MSHR misses
system.cpu.icache.demand_mshr_misses::cpu.inst         2530                       # number of demand (read+write) MSHR misses
system.cpu.icache.demand_mshr_misses::total         2530                       # number of demand (read+write) MSHR misses
system.cpu.icache.overall_mshr_misses::cpu.inst         2530                       # number of overall MSHR misses
system.cpu.icache.overall_mshr_misses::total         2530                       # number of overall MSHR misses
system.cpu.icache.ReadReq_mshr_miss_latency::cpu.inst    211020000                       # number of ReadReq MSHR miss cycles
system.cpu.icache.ReadReq_mshr_miss_latency::total    211020000                       # number of ReadReq MSHR miss cycles
system.cpu.icache.demand_mshr_miss_latency::cpu.inst    211020000                       # number of demand (read+write) MSHR miss cycles
system.cpu.icache.demand_mshr_miss_latency::total    211020000                       # number of demand (read+write) MSHR miss cycles
system.cpu.icache.overall_mshr_miss_latency::cpu.inst    211020000                       # number of overall MSHR miss cycles
system.cpu.icache.overall_mshr_miss_latency::total    211020000                       # number of overall MSHR miss cycles
system.cpu.icache.ReadReq_mshr_miss_rate::cpu.inst     0.000004                       # mshr miss rate for ReadReq accesses
system.cpu.icache.ReadReq_mshr_miss_rate::total     0.000004                       # mshr miss rate for ReadReq accesses
system.cpu.icache.demand_mshr_miss_rate::cpu.inst     0.000004                       # mshr miss rate for demand accesses
system.cpu.icache.demand_mshr_miss_rate::total     0.000004                       # mshr miss rate for demand accesses
system.cpu.icache.overall_mshr_miss_rate::cpu.inst     0.000004                       # mshr miss rate for overall accesses
system.cpu.icache.overall_mshr_miss_rate::total     0.000004                       # mshr miss rate for overall accesses
system.cpu.icache.ReadReq_avg_mshr_miss_latency::cpu.inst 83407.114625                       # average ReadReq mshr miss latency
system.cpu.icache.ReadReq_avg_mshr_miss_latency::total 83407.114625                       # average ReadReq mshr miss latency
system.cpu.icache.demand_avg_mshr_miss_latency::cpu.inst 83407.114625                       # average overall mshr miss latency
system.cpu.icache.demand_avg_mshr_miss_latency::total 83407.114625                       # average overall mshr miss latency
system.cpu.icache.overall_avg_mshr_miss_latency::cpu.inst 83407.114625                       # average overall mshr miss latency
system.cpu.icache.overall_avg_mshr_miss_latency::total 83407.114625                       # average overall mshr miss latency
system.cpu.itb_walker_cache.tags.pwrStateResidencyTicks::UNDEFINED 960158640500                       # Cumulative time (in ticks) in various power states
system.cpu.itb_walker_cache.tags.replacements            0                       # number of replacements
system.cpu.itb_walker_cache.tags.tagsinuse            0                       # Cycle average of tags in use
system.cpu.itb_walker_cache.tags.total_refs            0                       # Total number of references to valid blocks.
system.cpu.itb_walker_cache.tags.sampled_refs            0                       # Sample count of references to valid blocks.
system.cpu.itb_walker_cache.tags.avg_refs          nan                       # Average number of references to valid blocks.
system.cpu.itb_walker_cache.tags.warmup_cycle            0                       # Cycle when the warmup percentage was hit.
system.cpu.itb_walker_cache.tags.tag_accesses            0                       # Number of tag accesses
system.cpu.itb_walker_cache.tags.data_accesses            0                       # Number of data accesses
system.cpu.itb_walker_cache.pwrStateResidencyTicks::UNDEFINED 960158640500                       # Cumulative time (in ticks) in various power states
system.cpu.itb_walker_cache.blocked_cycles::no_mshrs            0                       # number of cycles access was blocked
system.cpu.itb_walker_cache.blocked_cycles::no_targets            0                       # number of cycles access was blocked
system.cpu.itb_walker_cache.blocked::no_mshrs            0                       # number of cycles access was blocked
system.cpu.itb_walker_cache.blocked::no_targets            0                       # number of cycles access was blocked
system.cpu.itb_walker_cache.avg_blocked_cycles::no_mshrs          nan                       # average number of cycles each access was blocked
system.cpu.itb_walker_cache.avg_blocked_cycles::no_targets          nan                       # average number of cycles each access was blocked
system.l2.tags.pwrStateResidencyTicks::UNDEFINED 960158640500                       # Cumulative time (in ticks) in various power states
system.l2.tags.replacements                       761                       # number of replacements
system.l2.tags.tagsinuse                 10864.682273                       # Cycle average of tags in use
system.l2.tags.total_refs                     1407598                       # Total number of references to valid blocks.
system.l2.tags.sampled_refs                     11704                       # Sample count of references to valid blocks.
system.l2.tags.avg_refs                    120.266405                       # Average number of references to valid blocks.
system.l2.tags.warmup_cycle                         0                       # Cycle when the warmup percentage was hit.
system.l2.tags.occ_blocks::writebacks      114.893911                       # Average occupied blocks per requestor
system.l2.tags.occ_blocks::cpu.inst       1894.566967                       # Average occupied blocks per requestor
system.l2.tags.occ_blocks::cpu.data       8855.221395                       # Average occupied blocks per requestor
system.l2.tags.occ_percent::writebacks       0.003506                       # Average percentage of cache occupancy
system.l2.tags.occ_percent::cpu.inst         0.057818                       # Average percentage of cache occupancy
system.l2.tags.occ_percent::cpu.data         0.270240                       # Average percentage of cache occupancy
system.l2.tags.occ_percent::total            0.331564                       # Average percentage of cache occupancy
system.l2.tags.occ_task_id_blocks::1024         10943                       # Occupied blocks per task id
system.l2.tags.age_task_id_blocks_1024::4        10943                       # Occupied blocks per task id
system.l2.tags.occ_task_id_percent::1024     0.333954                       # Percentage of cache occupancy per task id
system.l2.tags.tag_accesses                   1431090                       # Number of tag accesses
system.l2.tags.data_accesses                  1431090                       # Number of data accesses
system.l2.pwrStateResidencyTicks::UNDEFINED 960158640500                       # Cumulative time (in ticks) in various power states
system.l2.WritebackDirty_hits::writebacks       700103                       # number of WritebackDirty hits
system.l2.WritebackDirty_hits::total           700103                       # number of WritebackDirty hits
system.l2.WritebackClean_hits::writebacks         1508                       # number of WritebackClean hits
system.l2.WritebackClean_hits::total             1508                       # number of WritebackClean hits
system.l2.ReadExReq_hits::cpu.data             538797                       # number of ReadExReq hits
system.l2.ReadExReq_hits::total                538797                       # number of ReadExReq hits
system.l2.ReadCleanReq_hits::cpu.inst             157                       # number of ReadCleanReq hits
system.l2.ReadCleanReq_hits::total                157                       # number of ReadCleanReq hits
system.l2.ReadSharedReq_hits::cpu.data         160745                       # number of ReadSharedReq hits
system.l2.ReadSharedReq_hits::total            160745                       # number of ReadSharedReq hits
system.l2.demand_hits::cpu.inst                   157                       # number of demand (read+write) hits
system.l2.demand_hits::cpu.data                699542                       # number of demand (read+write) hits
system.l2.demand_hits::total                   699699                       # number of demand (read+write) hits
system.l2.overall_hits::cpu.inst                  157                       # number of overall hits
system.l2.overall_hits::cpu.data               699542                       # number of overall hits
system.l2.overall_hits::total                  699699                       # number of overall hits
system.l2.ReadExReq_misses::cpu.data             7428                       # number of ReadExReq misses
system.l2.ReadExReq_misses::total                7428                       # number of ReadExReq misses
system.l2.ReadCleanReq_misses::cpu.inst          2373                       # number of ReadCleanReq misses
system.l2.ReadCleanReq_misses::total             2373                       # number of ReadCleanReq misses
system.l2.ReadSharedReq_misses::cpu.data         1728                       # number of ReadSharedReq misses
system.l2.ReadSharedReq_misses::total            1728                       # number of ReadSharedReq misses
system.l2.demand_misses::cpu.inst                2373                       # number of demand (read+write) misses
system.l2.demand_misses::cpu.data                9156                       # number of demand (read+write) misses
system.l2.demand_misses::total                  11529                       # number of demand (read+write) misses
system.l2.overall_misses::cpu.inst               2373                       # number of overall misses
system.l2.overall_misses::cpu.data               9156                       # number of overall misses
system.l2.overall_misses::total                 11529                       # number of overall misses
system.l2.ReadExReq_miss_latency::cpu.data    638228500                       # number of ReadExReq miss cycles
system.l2.ReadExReq_miss_latency::total     638228500                       # number of ReadExReq miss cycles
system.l2.ReadCleanReq_miss_latency::cpu.inst    205576500                       # number of ReadCleanReq miss cycles
system.l2.ReadCleanReq_miss_latency::total    205576500                       # number of ReadCleanReq miss cycles
system.l2.ReadSharedReq_miss_latency::cpu.data    159852500                       # number of ReadSharedReq miss cycles
system.l2.ReadSharedReq_miss_latency::total    159852500                       # number of ReadSharedReq miss cycles
system.l2.demand_miss_latency::cpu.inst     205576500                       # number of demand (read+write) miss cycles
system.l2.demand_miss_latency::cpu.data     798081000                       # number of demand (read+write) miss cycles
system.l2.demand_miss_latency::total       1003657500                       # number of demand (read+write) miss cycles
system.l2.overall_miss_latency::cpu.inst    205576500                       # number of overall miss cycles
system.l2.overall_miss_latency::cpu.data    798081000                       # number of overall miss cycles
system.l2.overall_miss_latency::total      1003657500                       # number of overall miss cycles
system.l2.WritebackDirty_accesses::writebacks       700103                       # number of WritebackDirty accesses(hits+misses)
system.l2.WritebackDirty_accesses::total       700103                       # number of WritebackDirty accesses(hits+misses)
system.l2.WritebackClean_accesses::writebacks         1508                       # number of WritebackClean accesses(hits+misses)
system.l2.WritebackClean_accesses::total         1508                       # number of WritebackClean accesses(hits+misses)
system.l2.ReadExReq_accesses::cpu.data         546225                       # number of ReadExReq accesses(hits+misses)
system.l2.ReadExReq_accesses::total            546225                       # number of ReadExReq accesses(hits+misses)
system.l2.ReadCleanReq_accesses::cpu.inst         2530                       # number of ReadCleanReq accesses(hits+misses)
system.l2.ReadCleanReq_accesses::total           2530                       # number of ReadCleanReq accesses(hits+misses)
system.l2.ReadSharedReq_accesses::cpu.data       162473                       # number of ReadSharedReq accesses(hits+misses)
system.l2.ReadSharedReq_accesses::total        162473                       # number of ReadSharedReq accesses(hits+misses)
system.l2.demand_accesses::cpu.inst              2530                       # number of demand (read+write) accesses
system.l2.demand_accesses::cpu.data            708698                       # number of demand (read+write) accesses
system.l2.demand_accesses::total               711228                       # number of demand (read+write) accesses
system.l2.overall_accesses::cpu.inst             2530                       # number of overall (read+write) accesses
system.l2.overall_accesses::cpu.data           708698                       # number of overall (read+write) accesses
system.l2.overall_accesses::total              711228                       # number of overall (read+write) accesses
system.l2.ReadExReq_miss_rate::cpu.data      0.013599                       # miss rate for ReadExReq accesses
system.l2.ReadExReq_miss_rate::total         0.013599                       # miss rate for ReadExReq accesses
system.l2.ReadCleanReq_miss_rate::cpu.inst     0.937945                       # miss rate for ReadCleanReq accesses
system.l2.ReadCleanReq_miss_rate::total      0.937945                       # miss rate for ReadCleanReq accesses
system.l2.ReadSharedReq_miss_rate::cpu.data     0.010636                       # miss rate for ReadSharedReq accesses
system.l2.ReadSharedReq_miss_rate::total     0.010636                       # miss rate for ReadSharedReq accesses
system.l2.demand_miss_rate::cpu.inst         0.937945                       # miss rate for demand accesses
system.l2.demand_miss_rate::cpu.data         0.012919                       # miss rate for demand accesses
system.l2.demand_miss_rate::total            0.016210                       # miss rate for demand accesses
system.l2.overall_miss_rate::cpu.inst        0.937945                       # miss rate for overall accesses
system.l2.overall_miss_rate::cpu.data        0.012919                       # miss rate for overall accesses
system.l2.overall_miss_rate::total           0.016210                       # miss rate for overall accesses
system.l2.ReadExReq_avg_miss_latency::cpu.data 85921.984383                       # average ReadExReq miss latency
system.l2.ReadExReq_avg_miss_latency::total 85921.984383                       # average ReadExReq miss latency
system.l2.ReadCleanReq_avg_miss_latency::cpu.inst 86631.479140                       # average ReadCleanReq miss latency
system.l2.ReadCleanReq_avg_miss_latency::total 86631.479140                       # average ReadCleanReq miss latency
system.l2.ReadSharedReq_avg_miss_latency::cpu.data 92507.233796                       # average ReadSharedReq miss latency
system.l2.ReadSharedReq_avg_miss_latency::total 92507.233796                       # average ReadSharedReq miss latency
system.l2.demand_avg_miss_latency::cpu.inst 86631.479140                       # average overall miss latency
system.l2.demand_avg_miss_latency::cpu.data 87164.809961                       # average overall miss latency
system.l2.demand_avg_miss_latency::total 87055.035129                       # average overall miss latency
system.l2.overall_avg_miss_latency::cpu.inst 86631.479140                       # average overall miss latency
system.l2.overall_avg_miss_latency::cpu.data 87164.809961                       # average overall miss latency
system.l2.overall_avg_miss_latency::total 87055.035129                       # average overall miss latency
system.l2.blocked_cycles::no_mshrs                  0                       # number of cycles access was blocked
system.l2.blocked_cycles::no_targets                0                       # number of cycles access was blocked
system.l2.blocked::no_mshrs                         0                       # number of cycles access was blocked
system.l2.blocked::no_targets                       0                       # number of cycles access was blocked
system.l2.avg_blocked_cycles::no_mshrs            nan                       # average number of cycles each access was blocked
system.l2.avg_blocked_cycles::no_targets          nan                       # average number of cycles each access was blocked
system.l2.writebacks::writebacks                   31                       # number of writebacks
system.l2.writebacks::total                        31                       # number of writebacks
system.l2.CleanEvict_mshr_misses::writebacks           84                       # number of CleanEvict MSHR misses
system.l2.CleanEvict_mshr_misses::total            84                       # number of CleanEvict MSHR misses
system.l2.ReadExReq_mshr_misses::cpu.data         7428                       # number of ReadExReq MSHR misses
system.l2.ReadExReq_mshr_misses::total           7428                       # number of ReadExReq MSHR misses
system.l2.ReadCleanReq_mshr_misses::cpu.inst         2373                       # number of ReadCleanReq MSHR misses
system.l2.ReadCleanReq_mshr_misses::total         2373                       # number of ReadCleanReq MSHR misses
system.l2.ReadSharedReq_mshr_misses::cpu.data         1728                       # number of ReadSharedReq MSHR misses
system.l2.ReadSharedReq_mshr_misses::total         1728                       # number of ReadSharedReq MSHR misses
system.l2.demand_mshr_misses::cpu.inst           2373                       # number of demand (read+write) MSHR misses
system.l2.demand_mshr_misses::cpu.data           9156                       # number of demand (read+write) MSHR misses
system.l2.demand_mshr_misses::total             11529                       # number of demand (read+write) MSHR misses
system.l2.overall_mshr_misses::cpu.inst          2373                       # number of overall MSHR misses
system.l2.overall_mshr_misses::cpu.data          9156                       # number of overall MSHR misses
system.l2.overall_mshr_misses::total            11529                       # number of overall MSHR misses
system.l2.ReadExReq_mshr_miss_latency::cpu.data    563948500                       # number of ReadExReq MSHR miss cycles
system.l2.ReadExReq_mshr_miss_latency::total    563948500                       # number of ReadExReq MSHR miss cycles
system.l2.ReadCleanReq_mshr_miss_latency::cpu.inst    181846500                       # number of ReadCleanReq MSHR miss cycles
system.l2.ReadCleanReq_mshr_miss_latency::total    181846500                       # number of ReadCleanReq MSHR miss cycles
system.l2.ReadSharedReq_mshr_miss_latency::cpu.data    142572500                       # number of ReadSharedReq MSHR miss cycles
system.l2.ReadSharedReq_mshr_miss_latency::total    142572500                       # number of ReadSharedReq MSHR miss cycles
system.l2.demand_mshr_miss_latency::cpu.inst    181846500                       # number of demand (read+write) MSHR miss cycles
system.l2.demand_mshr_miss_latency::cpu.data    706521000                       # number of demand (read+write) MSHR miss cycles
system.l2.demand_mshr_miss_latency::total    888367500                       # number of demand (read+write) MSHR miss cycles
system.l2.overall_mshr_miss_latency::cpu.inst    181846500                       # number of overall MSHR miss cycles
system.l2.overall_mshr_miss_latency::cpu.data    706521000                       # number of overall MSHR miss cycles
system.l2.overall_mshr_miss_latency::total    888367500                       # number of overall MSHR miss cycles
system.l2.CleanEvict_mshr_miss_rate::writebacks          inf                       # mshr miss rate for CleanEvict accesses
system.l2.CleanEvict_mshr_miss_rate::total          inf                       # mshr miss rate for CleanEvict accesses
system.l2.ReadExReq_mshr_miss_rate::cpu.data     0.013599                       # mshr miss rate for ReadExReq accesses
system.l2.ReadExReq_mshr_miss_rate::total     0.013599                       # mshr miss rate for ReadExReq accesses
system.l2.ReadCleanReq_mshr_miss_rate::cpu.inst     0.937945                       # mshr miss rate for ReadCleanReq accesses
system.l2.ReadCleanReq_mshr_miss_rate::total     0.937945                       # mshr miss rate for ReadCleanReq accesses
system.l2.ReadSharedReq_mshr_miss_rate::cpu.data     0.010636                       # mshr miss rate for ReadSharedReq accesses
system.l2.ReadSharedReq_mshr_miss_rate::total     0.010636                       # mshr miss rate for ReadSharedReq accesses
system.l2.demand_mshr_miss_rate::cpu.inst     0.937945                       # mshr miss rate for demand accesses
system.l2.demand_mshr_miss_rate::cpu.data     0.012919                       # mshr miss rate for demand accesses
system.l2.demand_mshr_miss_rate::total       0.016210                       # mshr miss rate for demand accesses
system.l2.overall_mshr_miss_rate::cpu.inst     0.937945                       # mshr miss rate for overall accesses
system.l2.overall_mshr_miss_rate::cpu.data     0.012919                       # mshr miss rate for overall accesses
system.l2.overall_mshr_miss_rate::total      0.016210                       # mshr miss rate for overall accesses
system.l2.ReadExReq_avg_mshr_miss_latency::cpu.data 75921.984383                       # average ReadExReq mshr miss latency
system.l2.ReadExReq_avg_mshr_miss_latency::total 75921.984383                       # average ReadExReq mshr miss latency
system.l2.ReadCleanReq_avg_mshr_miss_latency::cpu.inst 76631.479140                       # average ReadCleanReq mshr miss latency
system.l2.ReadCleanReq_avg_mshr_miss_latency::total 76631.479140                       # average ReadCleanReq mshr miss latency
system.l2.ReadSharedReq_avg_mshr_miss_latency::cpu.data 82507.233796                       # average ReadSharedReq mshr miss latency
system.l2.ReadSharedReq_avg_mshr_miss_latency::total 82507.233796                       # average ReadSharedReq mshr miss latency
system.l2.demand_avg_mshr_miss_latency::cpu.inst 76631.479140                       # average overall mshr miss latency
system.l2.demand_avg_mshr_miss_latency::cpu.data 77164.809961                       # average overall mshr miss latency
system.l2.demand_avg_mshr_miss_latency::total 77055.035129                       # average overall mshr miss latency
system.l2.overall_avg_mshr_miss_latency::cpu.inst 76631.479140                       # average overall mshr miss latency
system.l2.overall_avg_mshr_miss_latency::cpu.data 77164.809961                       # average overall mshr miss latency
system.l2.overall_avg_mshr_miss_latency::total 77055.035129                       # average overall mshr miss latency
system.membus.snoop_filter.tot_requests         11991                       # Total number of requests made to the snoop filter.
system.membus.snoop_filter.hit_single_requests          462                       # Number of requests hitting in the snoop filter with a single holder of the requested data.
system.membus.snoop_filter.hit_multi_requests            0                       # Number of requests hitting in the snoop filter with multiple (>1) holders of the requested data.
system.membus.snoop_filter.tot_snoops               0                       # Total number of snoops made to the snoop filter.
system.membus.snoop_filter.hit_single_snoops            0                       # Number of snoops hitting in the snoop filter with a single holder of the requested data.
system.membus.snoop_filter.hit_multi_snoops            0                       # Number of snoops hitting in the snoop filter with multiple (>1) holders of the requested data.
system.membus.pwrStateResidencyTicks::UNDEFINED 960158640500                       # Cumulative time (in ticks) in various power states
system.membus.trans_dist::ReadResp               4101                       # Transaction distribution
system.membus.trans_dist::WritebackDirty           31                       # Transaction distribution
system.membus.trans_dist::CleanEvict              431                       # Transaction distribution
system.membus.trans_dist::ReadExReq              7428                       # Transaction distribution
system.membus.trans_dist::ReadExResp             7428                       # Transaction distribution
system.membus.trans_dist::ReadSharedReq          4101                       # Transaction distribution
system.membus.pkt_count_system.l2.mem_side::system.mem_ctrls.port        23520                       # Packet count per connected master and slave (bytes)
system.membus.pkt_count_system.l2.mem_side::total        23520                       # Packet count per connected master and slave (bytes)
system.membus.pkt_count::total                  23520                       # Packet count per connected master and slave (bytes)
system.membus.pkt_size_system.l2.mem_side::system.mem_ctrls.port       369920                       # Cumulative packet size per connected master and slave (bytes)
system.membus.pkt_size_system.l2.mem_side::total       369920                       # Cumulative packet size per connected master and slave (bytes)
system.membus.pkt_size::total                  369920                       # Cumulative packet size per connected master and slave (bytes)
system.membus.snoops                                0                       # Total snoops (count)
system.membus.snoopTraffic                          0                       # Total snoop traffic (bytes)
system.membus.snoop_fanout::samples             11529                       # Request fanout histogram
system.membus.snoop_fanout::mean                    0                       # Request fanout histogram
system.membus.snoop_fanout::stdev                   0                       # Request fanout histogram
system.membus.snoop_fanout::underflows              0      0.00%      0.00% # Request fanout histogram
system.membus.snoop_fanout::0                   11529    100.00%    100.00% # Request fanout histogram
system.membus.snoop_fanout::1                       0      0.00%    100.00% # Request fanout histogram
system.membus.snoop_fanout::overflows               0      0.00%    100.00% # Request fanout histogram
system.membus.snoop_fanout::min_value               0                       # Request fanout histogram
system.membus.snoop_fanout::max_value               0                       # Request fanout histogram
system.membus.snoop_fanout::total               11529                       # Request fanout histogram
system.membus.reqLayer2.occupancy            12167000                       # Layer occupancy (ticks)
system.membus.reqLayer2.utilization               0.0                       # Layer utilization (%)
system.membus.respLayer1.occupancy           38276250                       # Layer occupancy (ticks)
system.membus.respLayer1.utilization              0.0                       # Layer utilization (%)
system.tol2bus.snoop_filter.tot_requests      1419386                       # Total number of requests made to the snoop filter.
system.tol2bus.snoop_filter.hit_single_requests       708158                       # Number of requests hitting in the snoop filter with a single holder of the requested data.
system.tol2bus.snoop_filter.hit_multi_requests            0                       # Number of requests hitting in the snoop filter with multiple (>1) holders of the requested data.
system.tol2bus.snoop_filter.tot_snoops            383                       # Total number of snoops made to the snoop filter.
system.tol2bus.snoop_filter.hit_single_snoops          383                       # Number of snoops hitting in the snoop filter with a single holder of the requested data.
system.tol2bus.snoop_filter.hit_multi_snoops            0                       # Number of snoops hitting in the snoop filter with multiple (>1) holders of the requested data.
system.tol2bus.pwrStateResidencyTicks::UNDEFINED 960158640500                       # Cumulative time (in ticks) in various power states
system.tol2bus.trans_dist::ReadResp            165003                       # Transaction distribution
system.tol2bus.trans_dist::WritebackDirty       700134                       # Transaction distribution
system.tol2bus.trans_dist::WritebackClean         1508                       # Transaction distribution
system.tol2bus.trans_dist::CleanEvict            7277                       # Transaction distribution
system.tol2bus.trans_dist::ReadExReq           546225                       # Transaction distribution
system.tol2bus.trans_dist::ReadExResp          546225                       # Transaction distribution
system.tol2bus.trans_dist::ReadCleanReq          2530                       # Transaction distribution
system.tol2bus.trans_dist::ReadSharedReq       162473                       # Transaction distribution
system.tol2bus.pkt_count_system.cpu.icache.mem_side::system.l2.cpu_side         6568                       # Packet count per connected master and slave (bytes)
system.tol2bus.pkt_count_system.cpu.dcache.mem_side::system.l2.cpu_side      2124046                       # Packet count per connected master and slave (bytes)
system.tol2bus.pkt_count::total               2130614                       # Packet count per connected master and slave (bytes)
system.tol2bus.pkt_size_system.cpu.icache.mem_side::system.l2.cpu_side       129216                       # Cumulative packet size per connected master and slave (bytes)
system.tol2bus.pkt_size_system.cpu.dcache.mem_side::system.l2.cpu_side     45081632                       # Cumulative packet size per connected master and slave (bytes)
system.tol2bus.pkt_size::total               45210848                       # Cumulative packet size per connected master and slave (bytes)
system.tol2bus.snoops                             761                       # Total snoops (count)
system.tol2bus.snoopTraffic                       992                       # Total snoop traffic (bytes)
system.tol2bus.snoop_fanout::samples           711989                       # Request fanout histogram
system.tol2bus.snoop_fanout::mean            0.000538                       # Request fanout histogram
system.tol2bus.snoop_fanout::stdev           0.023187                       # Request fanout histogram
system.tol2bus.snoop_fanout::underflows             0      0.00%      0.00% # Request fanout histogram
system.tol2bus.snoop_fanout::0                 711606     99.95%     99.95% # Request fanout histogram
system.tol2bus.snoop_fanout::1                    383      0.05%    100.00% # Request fanout histogram
system.tol2bus.snoop_fanout::2                      0      0.00%    100.00% # Request fanout histogram
system.tol2bus.snoop_fanout::3                      0      0.00%    100.00% # Request fanout histogram
system.tol2bus.snoop_fanout::4                      0      0.00%    100.00% # Request fanout histogram
system.tol2bus.snoop_fanout::overflows              0      0.00%    100.00% # Request fanout histogram
system.tol2bus.snoop_fanout::min_value              0                       # Request fanout histogram
system.tol2bus.snoop_fanout::max_value              1                       # Request fanout histogram
system.tol2bus.snoop_fanout::total             711989                       # Request fanout histogram
system.tol2bus.reqLayer0.occupancy         1060498500                       # Layer occupancy (ticks)
system.tol2bus.reqLayer0.utilization              0.1                       # Layer utilization (%)
system.tol2bus.respLayer0.occupancy           2530000                       # Layer occupancy (ticks)
system.tol2bus.respLayer0.utilization             0.0                       # Layer utilization (%)
system.tol2bus.respLayer1.occupancy         708698000                       # Layer occupancy (ticks)
system.tol2bus.respLayer1.utilization             0.1                       # Layer utilization (%)

---------- End Simulation Statistics   ----------
