
---------- Begin Simulation Statistics ----------
sim_seconds                                  1.086763                       # Number of seconds simulated
sim_ticks                                1086763316500                       # Number of ticks simulated
final_tick                               1086763316500                       # Number of ticks from beginning of simulation (restored from checkpoints and never reset)
sim_freq                                 1000000000000                       # Frequency of simulated ticks
host_inst_rate                                 486400                       # Simulator instruction rate (inst/s)
host_op_rate                                   710582                       # Simulator op (including micro ops) rate (op/s)
host_tick_rate                             1057202774                       # Simulator tick rate (ticks/s)
host_mem_usage                                 656132                       # Number of bytes of host memory used
host_seconds                                  1027.96                       # Real time elapsed on the host
sim_insts                                   500000001                       # Number of instructions simulated
sim_ops                                     730450447                       # Number of ops (including micro ops) simulated
system.voltage_domain.voltage                       1                       # Voltage in Volts
system.clk_domain.clock                          1000                       # Clock period in ticks
system.mem_ctrls.pwrStateResidencyTicks::UNDEFINED 1086763316500                       # Cumulative time (in ticks) in various power states
system.mem_ctrls.bytes_read::cpu.inst           64128                       # Number of bytes read from this memory
system.mem_ctrls.bytes_read::cpu.data        48683968                       # Number of bytes read from this memory
system.mem_ctrls.bytes_read::total           48748096                       # Number of bytes read from this memory
system.mem_ctrls.bytes_inst_read::cpu.inst        64128                       # Number of instructions bytes read from this memory
system.mem_ctrls.bytes_inst_read::total         64128                       # Number of instructions bytes read from this memory
system.mem_ctrls.bytes_written::writebacks     25483840                       # Number of bytes written to this memory
system.mem_ctrls.bytes_written::total        25483840                       # Number of bytes written to this memory
system.mem_ctrls.num_reads::cpu.inst             1002                       # Number of read requests responded to by this memory
system.mem_ctrls.num_reads::cpu.data           760687                       # Number of read requests responded to by this memory
system.mem_ctrls.num_reads::total              761689                       # Number of read requests responded to by this memory
system.mem_ctrls.num_writes::writebacks        398185                       # Number of write requests responded to by this memory
system.mem_ctrls.num_writes::total             398185                       # Number of write requests responded to by this memory
system.mem_ctrls.bw_read::cpu.inst              59008                       # Total read bandwidth from this memory (bytes/s)
system.mem_ctrls.bw_read::cpu.data           44797213                       # Total read bandwidth from this memory (bytes/s)
system.mem_ctrls.bw_read::total              44856221                       # Total read bandwidth from this memory (bytes/s)
system.mem_ctrls.bw_inst_read::cpu.inst         59008                       # Instruction read bandwidth from this memory (bytes/s)
system.mem_ctrls.bw_inst_read::total            59008                       # Instruction read bandwidth from this memory (bytes/s)
system.mem_ctrls.bw_write::writebacks        23449301                       # Write bandwidth from this memory (bytes/s)
system.mem_ctrls.bw_write::total             23449301                       # Write bandwidth from this memory (bytes/s)
system.mem_ctrls.bw_total::writebacks        23449301                       # Total bandwidth to/from this memory (bytes/s)
system.mem_ctrls.bw_total::cpu.inst             59008                       # Total bandwidth to/from this memory (bytes/s)
system.mem_ctrls.bw_total::cpu.data          44797213                       # Total bandwidth to/from this memory (bytes/s)
system.mem_ctrls.bw_total::total             68305522                       # Total bandwidth to/from this memory (bytes/s)
system.mem_ctrls.readReqs                      761689                       # Number of read requests accepted
system.mem_ctrls.writeReqs                     398185                       # Number of write requests accepted
system.mem_ctrls.readBursts                    761689                       # Number of DRAM read bursts, including those serviced by the write queue
system.mem_ctrls.writeBursts                   398185                       # Number of DRAM write bursts, including those merged in the write queue
system.mem_ctrls.bytesReadDRAM               48569600                       # Total number of bytes read from DRAM
system.mem_ctrls.bytesReadWrQ                  178496                       # Total number of bytes read from write queue
system.mem_ctrls.bytesWritten                25464256                       # Total number of bytes written to DRAM
system.mem_ctrls.bytesReadSys                48748096                       # Total read bytes from the system interface side
system.mem_ctrls.bytesWrittenSys             25483840                       # Total written bytes from the system interface side
system.mem_ctrls.servicedByWrQ                   2789                       # Number of DRAM read bursts serviced by the write queue
system.mem_ctrls.mergedWrBursts                   274                       # Number of DRAM write bursts merged with an existing one
system.mem_ctrls.neitherReadNorWriteReqs            0                       # Number of requests that are neither read nor write
system.mem_ctrls.perBankRdBursts::0             49369                       # Per bank write bursts
system.mem_ctrls.perBankRdBursts::1             47731                       # Per bank write bursts
system.mem_ctrls.perBankRdBursts::2             48565                       # Per bank write bursts
system.mem_ctrls.perBankRdBursts::3             45231                       # Per bank write bursts
system.mem_ctrls.perBankRdBursts::4             45086                       # Per bank write bursts
system.mem_ctrls.perBankRdBursts::5             44437                       # Per bank write bursts
system.mem_ctrls.perBankRdBursts::6             46396                       # Per bank write bursts
system.mem_ctrls.perBankRdBursts::7             45564                       # Per bank write bursts
system.mem_ctrls.perBankRdBursts::8             43327                       # Per bank write bursts
system.mem_ctrls.perBankRdBursts::9             43592                       # Per bank write bursts
system.mem_ctrls.perBankRdBursts::10            47337                       # Per bank write bursts
system.mem_ctrls.perBankRdBursts::11            47740                       # Per bank write bursts
system.mem_ctrls.perBankRdBursts::12            49708                       # Per bank write bursts
system.mem_ctrls.perBankRdBursts::13            49660                       # Per bank write bursts
system.mem_ctrls.perBankRdBursts::14            50132                       # Per bank write bursts
system.mem_ctrls.perBankRdBursts::15            55025                       # Per bank write bursts
system.mem_ctrls.perBankWrBursts::0             25714                       # Per bank write bursts
system.mem_ctrls.perBankWrBursts::1             25208                       # Per bank write bursts
system.mem_ctrls.perBankWrBursts::2             26632                       # Per bank write bursts
system.mem_ctrls.perBankWrBursts::3             24248                       # Per bank write bursts
system.mem_ctrls.perBankWrBursts::4             23719                       # Per bank write bursts
system.mem_ctrls.perBankWrBursts::5             23031                       # Per bank write bursts
system.mem_ctrls.perBankWrBursts::6             24553                       # Per bank write bursts
system.mem_ctrls.perBankWrBursts::7             24402                       # Per bank write bursts
system.mem_ctrls.perBankWrBursts::8             23361                       # Per bank write bursts
system.mem_ctrls.perBankWrBursts::9             23416                       # Per bank write bursts
system.mem_ctrls.perBankWrBursts::10            24788                       # Per bank write bursts
system.mem_ctrls.perBankWrBursts::11            24510                       # Per bank write bursts
system.mem_ctrls.perBankWrBursts::12            25133                       # Per bank write bursts
system.mem_ctrls.perBankWrBursts::13            25509                       # Per bank write bursts
system.mem_ctrls.perBankWrBursts::14            25959                       # Per bank write bursts
system.mem_ctrls.perBankWrBursts::15            27696                       # Per bank write bursts
system.mem_ctrls.numRdRetry                         0                       # Number of times read queue was full causing retry
system.mem_ctrls.numWrRetry                         0                       # Number of times write queue was full causing retry
system.mem_ctrls.totGap                  1086729965500                       # Total gap between requests
system.mem_ctrls.readPktSize::0                     0                       # Read request sizes (log2)
system.mem_ctrls.readPktSize::1                     0                       # Read request sizes (log2)
system.mem_ctrls.readPktSize::2                     0                       # Read request sizes (log2)
system.mem_ctrls.readPktSize::3                     0                       # Read request sizes (log2)
system.mem_ctrls.readPktSize::4                     0                       # Read request sizes (log2)
system.mem_ctrls.readPktSize::5                     0                       # Read request sizes (log2)
system.mem_ctrls.readPktSize::6                761689                       # Read request sizes (log2)
system.mem_ctrls.writePktSize::0                    0                       # Write request sizes (log2)
system.mem_ctrls.writePktSize::1                    0                       # Write request sizes (log2)
system.mem_ctrls.writePktSize::2                    0                       # Write request sizes (log2)
system.mem_ctrls.writePktSize::3                    0                       # Write request sizes (log2)
system.mem_ctrls.writePktSize::4                    0                       # Write request sizes (log2)
system.mem_ctrls.writePktSize::5                    0                       # Write request sizes (log2)
system.mem_ctrls.writePktSize::6               398185                       # Write request sizes (log2)
system.mem_ctrls.rdQLenPdf::0                  750255                       # What read queue length does an incoming req see
system.mem_ctrls.rdQLenPdf::1                    7997                       # What read queue length does an incoming req see
system.mem_ctrls.rdQLenPdf::2                     446                       # What read queue length does an incoming req see
system.mem_ctrls.rdQLenPdf::3                     202                       # What read queue length does an incoming req see
system.mem_ctrls.rdQLenPdf::4                       0                       # What read queue length does an incoming req see
system.mem_ctrls.rdQLenPdf::5                       0                       # What read queue length does an incoming req see
system.mem_ctrls.rdQLenPdf::6                       0                       # What read queue length does an incoming req see
system.mem_ctrls.rdQLenPdf::7                       0                       # What read queue length does an incoming req see
system.mem_ctrls.rdQLenPdf::8                       0                       # What read queue length does an incoming req see
system.mem_ctrls.rdQLenPdf::9                       0                       # What read queue length does an incoming req see
system.mem_ctrls.rdQLenPdf::10                      0                       # What read queue length does an incoming req see
system.mem_ctrls.rdQLenPdf::11                      0                       # What read queue length does an incoming req see
system.mem_ctrls.rdQLenPdf::12                      0                       # What read queue length does an incoming req see
system.mem_ctrls.rdQLenPdf::13                      0                       # What read queue length does an incoming req see
system.mem_ctrls.rdQLenPdf::14                      0                       # What read queue length does an incoming req see
system.mem_ctrls.rdQLenPdf::15                      0                       # What read queue length does an incoming req see
system.mem_ctrls.rdQLenPdf::16                      0                       # What read queue length does an incoming req see
system.mem_ctrls.rdQLenPdf::17                      0                       # What read queue length does an incoming req see
system.mem_ctrls.rdQLenPdf::18                      0                       # What read queue length does an incoming req see
system.mem_ctrls.rdQLenPdf::19                      0                       # What read queue length does an incoming req see
system.mem_ctrls.rdQLenPdf::20                      0                       # What read queue length does an incoming req see
system.mem_ctrls.rdQLenPdf::21                      0                       # What read queue length does an incoming req see
system.mem_ctrls.rdQLenPdf::22                      0                       # What read queue length does an incoming req see
system.mem_ctrls.rdQLenPdf::23                      0                       # What read queue length does an incoming req see
system.mem_ctrls.rdQLenPdf::24                      0                       # What read queue length does an incoming req see
system.mem_ctrls.rdQLenPdf::25                      0                       # What read queue length does an incoming req see
system.mem_ctrls.rdQLenPdf::26                      0                       # What read queue length does an incoming req see
system.mem_ctrls.rdQLenPdf::27                      0                       # What read queue length does an incoming req see
system.mem_ctrls.rdQLenPdf::28                      0                       # What read queue length does an incoming req see
system.mem_ctrls.rdQLenPdf::29                      0                       # What read queue length does an incoming req see
system.mem_ctrls.rdQLenPdf::30                      0                       # What read queue length does an incoming req see
system.mem_ctrls.rdQLenPdf::31                      0                       # What read queue length does an incoming req see
system.mem_ctrls.wrQLenPdf::0                       1                       # What write queue length does an incoming req see
system.mem_ctrls.wrQLenPdf::1                       1                       # What write queue length does an incoming req see
system.mem_ctrls.wrQLenPdf::2                       1                       # What write queue length does an incoming req see
system.mem_ctrls.wrQLenPdf::3                       1                       # What write queue length does an incoming req see
system.mem_ctrls.wrQLenPdf::4                       1                       # What write queue length does an incoming req see
system.mem_ctrls.wrQLenPdf::5                       1                       # What write queue length does an incoming req see
system.mem_ctrls.wrQLenPdf::6                       1                       # What write queue length does an incoming req see
system.mem_ctrls.wrQLenPdf::7                       1                       # What write queue length does an incoming req see
system.mem_ctrls.wrQLenPdf::8                       1                       # What write queue length does an incoming req see
system.mem_ctrls.wrQLenPdf::9                       1                       # What write queue length does an incoming req see
system.mem_ctrls.wrQLenPdf::10                      1                       # What write queue length does an incoming req see
system.mem_ctrls.wrQLenPdf::11                      1                       # What write queue length does an incoming req see
system.mem_ctrls.wrQLenPdf::12                      1                       # What write queue length does an incoming req see
system.mem_ctrls.wrQLenPdf::13                      1                       # What write queue length does an incoming req see
system.mem_ctrls.wrQLenPdf::14                      1                       # What write queue length does an incoming req see
system.mem_ctrls.wrQLenPdf::15                  14616                       # What write queue length does an incoming req see
system.mem_ctrls.wrQLenPdf::16                  15271                       # What write queue length does an incoming req see
system.mem_ctrls.wrQLenPdf::17                  22983                       # What write queue length does an incoming req see
system.mem_ctrls.wrQLenPdf::18                  22988                       # What write queue length does an incoming req see
system.mem_ctrls.wrQLenPdf::19                  22994                       # What write queue length does an incoming req see
system.mem_ctrls.wrQLenPdf::20                  22997                       # What write queue length does an incoming req see
system.mem_ctrls.wrQLenPdf::21                  22990                       # What write queue length does an incoming req see
system.mem_ctrls.wrQLenPdf::22                  22992                       # What write queue length does an incoming req see
system.mem_ctrls.wrQLenPdf::23                  22992                       # What write queue length does an incoming req see
system.mem_ctrls.wrQLenPdf::24                  22987                       # What write queue length does an incoming req see
system.mem_ctrls.wrQLenPdf::25                  22993                       # What write queue length does an incoming req see
system.mem_ctrls.wrQLenPdf::26                  22992                       # What write queue length does an incoming req see
system.mem_ctrls.wrQLenPdf::27                  22991                       # What write queue length does an incoming req see
system.mem_ctrls.wrQLenPdf::28                  23022                       # What write queue length does an incoming req see
system.mem_ctrls.wrQLenPdf::29                  23103                       # What write queue length does an incoming req see
system.mem_ctrls.wrQLenPdf::30                  23015                       # What write queue length does an incoming req see
system.mem_ctrls.wrQLenPdf::31                  22986                       # What write queue length does an incoming req see
system.mem_ctrls.wrQLenPdf::32                  22984                       # What write queue length does an incoming req see
system.mem_ctrls.wrQLenPdf::33                      0                       # What write queue length does an incoming req see
system.mem_ctrls.wrQLenPdf::34                      0                       # What write queue length does an incoming req see
system.mem_ctrls.wrQLenPdf::35                      0                       # What write queue length does an incoming req see
system.mem_ctrls.wrQLenPdf::36                      0                       # What write queue length does an incoming req see
system.mem_ctrls.wrQLenPdf::37                      0                       # What write queue length does an incoming req see
system.mem_ctrls.wrQLenPdf::38                      0                       # What write queue length does an incoming req see
system.mem_ctrls.wrQLenPdf::39                      0                       # What write queue length does an incoming req see
system.mem_ctrls.wrQLenPdf::40                      0                       # What write queue length does an incoming req see
system.mem_ctrls.wrQLenPdf::41                      0                       # What write queue length does an incoming req see
system.mem_ctrls.wrQLenPdf::42                      0                       # What write queue length does an incoming req see
system.mem_ctrls.wrQLenPdf::43                      0                       # What write queue length does an incoming req see
system.mem_ctrls.wrQLenPdf::44                      0                       # What write queue length does an incoming req see
system.mem_ctrls.wrQLenPdf::45                      0                       # What write queue length does an incoming req see
system.mem_ctrls.wrQLenPdf::46                      0                       # What write queue length does an incoming req see
system.mem_ctrls.wrQLenPdf::47                      0                       # What write queue length does an incoming req see
system.mem_ctrls.wrQLenPdf::48                      0                       # What write queue length does an incoming req see
system.mem_ctrls.wrQLenPdf::49                      0                       # What write queue length does an incoming req see
system.mem_ctrls.wrQLenPdf::50                      0                       # What write queue length does an incoming req see
system.mem_ctrls.wrQLenPdf::51                      0                       # What write queue length does an incoming req see
system.mem_ctrls.wrQLenPdf::52                      0                       # What write queue length does an incoming req see
system.mem_ctrls.wrQLenPdf::53                      0                       # What write queue length does an incoming req see
system.mem_ctrls.wrQLenPdf::54                      0                       # What write queue length does an incoming req see
system.mem_ctrls.wrQLenPdf::55                      0                       # What write queue length does an incoming req see
system.mem_ctrls.wrQLenPdf::56                      0                       # What write queue length does an incoming req see
system.mem_ctrls.wrQLenPdf::57                      0                       # What write queue length does an incoming req see
system.mem_ctrls.wrQLenPdf::58                      0                       # What write queue length does an incoming req see
system.mem_ctrls.wrQLenPdf::59                      0                       # What write queue length does an incoming req see
system.mem_ctrls.wrQLenPdf::60                      0                       # What write queue length does an incoming req see
system.mem_ctrls.wrQLenPdf::61                      0                       # What write queue length does an incoming req see
system.mem_ctrls.wrQLenPdf::62                      0                       # What write queue length does an incoming req see
system.mem_ctrls.wrQLenPdf::63                      0                       # What write queue length does an incoming req see
system.mem_ctrls.bytesPerActivate::samples       589596                       # Bytes accessed per row activation
system.mem_ctrls.bytesPerActivate::mean    125.567093                       # Bytes accessed per row activation
system.mem_ctrls.bytesPerActivate::gmean    92.212487                       # Bytes accessed per row activation
system.mem_ctrls.bytesPerActivate::stdev   155.131182                       # Bytes accessed per row activation
system.mem_ctrls.bytesPerActivate::0-127       407523     69.12%     69.12% # Bytes accessed per row activation
system.mem_ctrls.bytesPerActivate::128-255       119252     20.23%     89.35% # Bytes accessed per row activation
system.mem_ctrls.bytesPerActivate::256-383        26909      4.56%     93.91% # Bytes accessed per row activation
system.mem_ctrls.bytesPerActivate::384-511         9863      1.67%     95.58% # Bytes accessed per row activation
system.mem_ctrls.bytesPerActivate::512-639        12195      2.07%     97.65% # Bytes accessed per row activation
system.mem_ctrls.bytesPerActivate::640-767         2274      0.39%     98.04% # Bytes accessed per row activation
system.mem_ctrls.bytesPerActivate::768-895         1716      0.29%     98.33% # Bytes accessed per row activation
system.mem_ctrls.bytesPerActivate::896-1023         1596      0.27%     98.60% # Bytes accessed per row activation
system.mem_ctrls.bytesPerActivate::1024-1151         8268      1.40%    100.00% # Bytes accessed per row activation
system.mem_ctrls.bytesPerActivate::total       589596                       # Bytes accessed per row activation
system.mem_ctrls.rdPerTurnAround::samples        22984                       # Reads before turning the bus around for writes
system.mem_ctrls.rdPerTurnAround::mean      33.005917                       # Reads before turning the bus around for writes
system.mem_ctrls.rdPerTurnAround::gmean     25.136507                       # Reads before turning the bus around for writes
system.mem_ctrls.rdPerTurnAround::stdev    136.441145                       # Reads before turning the bus around for writes
system.mem_ctrls.rdPerTurnAround::0-511         22944     99.83%     99.83% # Reads before turning the bus around for writes
system.mem_ctrls.rdPerTurnAround::512-1023           31      0.13%     99.96% # Reads before turning the bus around for writes
system.mem_ctrls.rdPerTurnAround::1024-1535            2      0.01%     99.97% # Reads before turning the bus around for writes
system.mem_ctrls.rdPerTurnAround::1536-2047            1      0.00%     99.97% # Reads before turning the bus around for writes
system.mem_ctrls.rdPerTurnAround::4608-5119            1      0.00%     99.98% # Reads before turning the bus around for writes
system.mem_ctrls.rdPerTurnAround::6656-7167            1      0.00%     99.98% # Reads before turning the bus around for writes
system.mem_ctrls.rdPerTurnAround::7168-7679            2      0.01%     99.99% # Reads before turning the bus around for writes
system.mem_ctrls.rdPerTurnAround::8192-8703            1      0.00%    100.00% # Reads before turning the bus around for writes
system.mem_ctrls.rdPerTurnAround::11776-12287            1      0.00%    100.00% # Reads before turning the bus around for writes
system.mem_ctrls.rdPerTurnAround::total         22984                       # Reads before turning the bus around for writes
system.mem_ctrls.wrPerTurnAround::samples        22984                       # Writes before turning the bus around for reads
system.mem_ctrls.wrPerTurnAround::mean      17.311129                       # Writes before turning the bus around for reads
system.mem_ctrls.wrPerTurnAround::gmean     17.284350                       # Writes before turning the bus around for reads
system.mem_ctrls.wrPerTurnAround::stdev      0.952149                       # Writes before turning the bus around for reads
system.mem_ctrls.wrPerTurnAround::16             7709     33.54%     33.54% # Writes before turning the bus around for reads
system.mem_ctrls.wrPerTurnAround::17              654      2.85%     36.39% # Writes before turning the bus around for reads
system.mem_ctrls.wrPerTurnAround::18            14388     62.60%     98.99% # Writes before turning the bus around for reads
system.mem_ctrls.wrPerTurnAround::19              228      0.99%     99.98% # Writes before turning the bus around for reads
system.mem_ctrls.wrPerTurnAround::20                4      0.02%    100.00% # Writes before turning the bus around for reads
system.mem_ctrls.wrPerTurnAround::21                1      0.00%    100.00% # Writes before turning the bus around for reads
system.mem_ctrls.wrPerTurnAround::total         22984                       # Writes before turning the bus around for reads
system.mem_ctrls.totQLat                  24410748000                       # Total ticks spent queuing
system.mem_ctrls.totMemAccLat             38640123000                       # Total ticks spent from burst creation until serviced by the DRAM
system.mem_ctrls.totBusLat                 3794500000                       # Total ticks spent in databus transfers
system.mem_ctrls.avgQLat                     32165.96                       # Average queueing delay per DRAM burst
system.mem_ctrls.avgBusLat                    5000.00                       # Average bus latency per DRAM burst
system.mem_ctrls.avgMemAccLat                50915.96                       # Average memory access latency per DRAM burst
system.mem_ctrls.avgRdBW                        44.69                       # Average DRAM read bandwidth in MiByte/s
system.mem_ctrls.avgWrBW                        23.43                       # Average achieved write bandwidth in MiByte/s
system.mem_ctrls.avgRdBWSys                     44.86                       # Average system read bandwidth in MiByte/s
system.mem_ctrls.avgWrBWSys                     23.45                       # Average system write bandwidth in MiByte/s
system.mem_ctrls.peakBW                      12800.00                       # Theoretical peak bandwidth in MiByte/s
system.mem_ctrls.busUtil                         0.53                       # Data bus utilization in percentage
system.mem_ctrls.busUtilRead                     0.35                       # Data bus utilization in percentage for reads
system.mem_ctrls.busUtilWrite                    0.18                       # Data bus utilization in percentage for writes
system.mem_ctrls.avgRdQLen                       1.00                       # Average read queue length when enqueuing
system.mem_ctrls.avgWrQLen                      24.49                       # Average write queue length when enqueuing
system.mem_ctrls.readRowHits                   357192                       # Number of row buffer hits during reads
system.mem_ctrls.writeRowHits                  209991                       # Number of row buffer hits during writes
system.mem_ctrls.readRowHitRate                 47.07                       # Row buffer hit rate for reads
system.mem_ctrls.writeRowHitRate                52.77                       # Row buffer hit rate for writes
system.mem_ctrls.avgGap                     936937.95                       # Average gap between requests
system.mem_ctrls.pageHitRate                    49.03                       # Row buffer hit rate, read and write combined
system.mem_ctrls_0.actEnergy               2067986760                       # Energy for activate commands per rank (pJ)
system.mem_ctrls_0.preEnergy               1099161030                       # Energy for precharge commands per rank (pJ)
system.mem_ctrls_0.readEnergy              2658786060                       # Energy for read commands per rank (pJ)
system.mem_ctrls_0.writeEnergy             1030986540                       # Energy for write commands per rank (pJ)
system.mem_ctrls_0.refreshEnergy         43002058320.000008                       # Energy for refresh commands per rank (pJ)
system.mem_ctrls_0.actBackEnergy          22066217910                       # Energy for active background per rank (pJ)
system.mem_ctrls_0.preBackEnergy           1766825280                       # Energy for precharge background per rank (pJ)
system.mem_ctrls_0.actPowerDownEnergy    133500952290                       # Energy for active power-down per rank (pJ)
system.mem_ctrls_0.prePowerDownEnergy     51687255840                       # Energy for precharge power-down per rank (pJ)
system.mem_ctrls_0.selfRefreshEnergy     150444430080                       # Energy for self refresh per rank (pJ)
system.mem_ctrls_0.totalEnergy           409338073620                       # Total energy per rank (pJ)
system.mem_ctrls_0.averagePower            376.657976                       # Core power per rank (mW)
system.mem_ctrls_0.totalIdleTime         1033723873000                       # Total Idle time Per DRAM Rank
system.mem_ctrls_0.memoryStateTime::IDLE   2779698250                       # Time in different power states
system.mem_ctrls_0.memoryStateTime::REF   18248652000                       # Time in different power states
system.mem_ctrls_0.memoryStateTime::SREF 606374111000                       # Time in different power states
system.mem_ctrls_0.memoryStateTime::PRE_PDN 134603070250                       # Time in different power states
system.mem_ctrls_0.memoryStateTime::ACT   31993862250                       # Time in different power states
system.mem_ctrls_0.memoryStateTime::ACT_PDN 292763922750                       # Time in different power states
system.mem_ctrls_1.actEnergy               2141728680                       # Energy for activate commands per rank (pJ)
system.mem_ctrls_1.preEnergy               1138355790                       # Energy for precharge commands per rank (pJ)
system.mem_ctrls_1.readEnergy              2759759940                       # Energy for read commands per rank (pJ)
system.mem_ctrls_1.writeEnergy             1045941840                       # Energy for write commands per rank (pJ)
system.mem_ctrls_1.refreshEnergy         44425564560.000008                       # Energy for refresh commands per rank (pJ)
system.mem_ctrls_1.actBackEnergy          22625482530                       # Energy for active background per rank (pJ)
system.mem_ctrls_1.preBackEnergy           1838124480                       # Energy for precharge background per rank (pJ)
system.mem_ctrls_1.actPowerDownEnergy    138156760740                       # Energy for active power-down per rank (pJ)
system.mem_ctrls_1.prePowerDownEnergy     53219240640                       # Energy for precharge power-down per rank (pJ)
system.mem_ctrls_1.selfRefreshEnergy     146882400900                       # Energy for self refresh per rank (pJ)
system.mem_ctrls_1.totalEnergy           414246546360                       # Total energy per rank (pJ)
system.mem_ctrls_1.averagePower            381.174574                       # Core power per rank (mW)
system.mem_ctrls_1.totalIdleTime         1032292957000                       # Total Idle time Per DRAM Rank
system.mem_ctrls_1.memoryStateTime::IDLE   2895069500                       # Time in different power states
system.mem_ctrls_1.memoryStateTime::REF   18852960000                       # Time in different power states
system.mem_ctrls_1.memoryStateTime::SREF 590762739500                       # Time in different power states
system.mem_ctrls_1.memoryStateTime::PRE_PDN 138590005750                       # Time in different power states
system.mem_ctrls_1.memoryStateTime::ACT   32685192000                       # Time in different power states
system.mem_ctrls_1.memoryStateTime::ACT_PDN 302977349750                       # Time in different power states
system.pwrStateResidencyTicks::UNDEFINED 1086763316500                       # Cumulative time (in ticks) in various power states
system.cpu_voltage_domain.voltage                   1                       # Voltage in Volts
system.cpu_clk_domain.clock                       500                       # Clock period in ticks
system.cpu.dtb.walker.pwrStateResidencyTicks::UNDEFINED 1086763316500                       # Cumulative time (in ticks) in various power states
system.cpu.apic_clk_domain.clock                 8000                       # Clock period in ticks
system.cpu.interrupts.pwrStateResidencyTicks::UNDEFINED 1086763316500                       # Cumulative time (in ticks) in various power states
system.cpu.itb.walker.pwrStateResidencyTicks::UNDEFINED 1086763316500                       # Cumulative time (in ticks) in various power states
system.cpu.workload.num_syscalls                   86                       # Number of system calls
system.cpu.pwrStateResidencyTicks::ON    1086763316500                       # Cumulative time (in ticks) in various power states
system.cpu.numCycles                       2173526633                       # number of cpu cycles simulated
system.cpu.numWorkItemsStarted                      0                       # number of work items this cpu started
system.cpu.numWorkItemsCompleted                    0                       # number of work items this cpu completed
system.cpu.committedInsts                   500000001                       # Number of instructions committed
system.cpu.committedOps                     730450447                       # Number of ops (including micro ops) committed
system.cpu.num_int_alu_accesses             729688906                       # Number of integer alu accesses
system.cpu.num_fp_alu_accesses                    663                       # Number of float alu accesses
system.cpu.num_func_calls                     1453961                       # number of times a function call or return occured
system.cpu.num_conditional_control_insts     31770496                       # number of instructions that are conditional controls
system.cpu.num_int_insts                    729688906                       # number of integer instructions
system.cpu.num_fp_insts                           663                       # number of float instructions
system.cpu.num_int_register_reads          1698743411                       # number of times the integer registers were read
system.cpu.num_int_register_writes          621892950                       # number of times the integer registers were written
system.cpu.num_fp_register_reads                 1009                       # number of times the floating registers were read
system.cpu.num_fp_register_writes                 429                       # number of times the floating registers were written
system.cpu.num_cc_register_reads            180840559                       # number of times the CC registers were read
system.cpu.num_cc_register_writes           276245121                       # number of times the CC registers were written
system.cpu.num_mem_refs                     295985461                       # number of memory refs
system.cpu.num_load_insts                   225946751                       # Number of load instructions
system.cpu.num_store_insts                   70038710                       # Number of store instructions
system.cpu.num_idle_cycles                          0                       # Number of idle cycles
system.cpu.num_busy_cycles                 2173526633                       # Number of busy cycles
system.cpu.not_idle_fraction                        1                       # Percentage of non-idle cycles
system.cpu.idle_fraction                            0                       # Percentage of idle cycles
system.cpu.Branches                          37843296                       # Number of branches fetched
system.cpu.op_class::No_OpClass                 94740      0.01%      0.01% # Class of executed instruction
system.cpu.op_class::IntAlu                 434349067     59.46%     59.48% # Class of executed instruction
system.cpu.op_class::IntMult                    20662      0.00%     59.48% # Class of executed instruction
system.cpu.op_class::IntDiv                       119      0.00%     59.48% # Class of executed instruction
system.cpu.op_class::FloatAdd                     398      0.00%     59.48% # Class of executed instruction
system.cpu.op_class::FloatCmp                       0      0.00%     59.48% # Class of executed instruction
system.cpu.op_class::FloatCvt                       0      0.00%     59.48% # Class of executed instruction
system.cpu.op_class::FloatMult                      0      0.00%     59.48% # Class of executed instruction
system.cpu.op_class::FloatDiv                       0      0.00%     59.48% # Class of executed instruction
system.cpu.op_class::FloatSqrt                      0      0.00%     59.48% # Class of executed instruction
system.cpu.op_class::SimdAdd                        0      0.00%     59.48% # Class of executed instruction
system.cpu.op_class::SimdAddAcc                     0      0.00%     59.48% # Class of executed instruction
system.cpu.op_class::SimdAlu                        0      0.00%     59.48% # Class of executed instruction
system.cpu.op_class::SimdCmp                        0      0.00%     59.48% # Class of executed instruction
system.cpu.op_class::SimdCvt                        0      0.00%     59.48% # Class of executed instruction
system.cpu.op_class::SimdMisc                       0      0.00%     59.48% # Class of executed instruction
system.cpu.op_class::SimdMult                       0      0.00%     59.48% # Class of executed instruction
system.cpu.op_class::SimdMultAcc                    0      0.00%     59.48% # Class of executed instruction
system.cpu.op_class::SimdShift                      0      0.00%     59.48% # Class of executed instruction
system.cpu.op_class::SimdShiftAcc                   0      0.00%     59.48% # Class of executed instruction
system.cpu.op_class::SimdSqrt                       0      0.00%     59.48% # Class of executed instruction
system.cpu.op_class::SimdFloatAdd                   0      0.00%     59.48% # Class of executed instruction
system.cpu.op_class::SimdFloatAlu                   0      0.00%     59.48% # Class of executed instruction
system.cpu.op_class::SimdFloatCmp                   0      0.00%     59.48% # Class of executed instruction
system.cpu.op_class::SimdFloatCvt                   0      0.00%     59.48% # Class of executed instruction
system.cpu.op_class::SimdFloatDiv                   0      0.00%     59.48% # Class of executed instruction
system.cpu.op_class::SimdFloatMisc                  0      0.00%     59.48% # Class of executed instruction
system.cpu.op_class::SimdFloatMult                  0      0.00%     59.48% # Class of executed instruction
system.cpu.op_class::SimdFloatMultAcc               0      0.00%     59.48% # Class of executed instruction
system.cpu.op_class::SimdFloatSqrt                  0      0.00%     59.48% # Class of executed instruction
system.cpu.op_class::MemRead                225946751     30.93%     90.41% # Class of executed instruction
system.cpu.op_class::MemWrite                70038710      9.59%    100.00% # Class of executed instruction
system.cpu.op_class::IprAccess                      0      0.00%    100.00% # Class of executed instruction
system.cpu.op_class::InstPrefetch                   0      0.00%    100.00% # Class of executed instruction
system.cpu.op_class::total                  730450447                       # Class of executed instruction
system.cpu.dcache.tags.pwrStateResidencyTicks::UNDEFINED 1086763316500                       # Cumulative time (in ticks) in various power states
system.cpu.dcache.tags.replacements           2934491                       # number of replacements
system.cpu.dcache.tags.tagsinuse          1021.237930                       # Cycle average of tags in use
system.cpu.dcache.tags.total_refs           293049954                       # Total number of references to valid blocks.
system.cpu.dcache.tags.sampled_refs           2935515                       # Sample count of references to valid blocks.
system.cpu.dcache.tags.avg_refs             99.829145                       # Average number of references to valid blocks.
system.cpu.dcache.tags.warmup_cycle        3748065500                       # Cycle when the warmup percentage was hit.
system.cpu.dcache.tags.occ_blocks::cpu.data  1021.237930                       # Average occupied blocks per requestor
system.cpu.dcache.tags.occ_percent::cpu.data     0.997303                       # Average percentage of cache occupancy
system.cpu.dcache.tags.occ_percent::total     0.997303                       # Average percentage of cache occupancy
system.cpu.dcache.tags.occ_task_id_blocks::1024         1024                       # Occupied blocks per task id
system.cpu.dcache.tags.age_task_id_blocks_1024::1            2                       # Occupied blocks per task id
system.cpu.dcache.tags.age_task_id_blocks_1024::2           16                       # Occupied blocks per task id
system.cpu.dcache.tags.age_task_id_blocks_1024::3         1006                       # Occupied blocks per task id
system.cpu.dcache.tags.occ_task_id_percent::1024            1                       # Percentage of cache occupancy per task id
system.cpu.dcache.tags.tag_accesses         298920984                       # Number of tag accesses
system.cpu.dcache.tags.data_accesses        298920984                       # Number of data accesses
system.cpu.dcache.pwrStateResidencyTicks::UNDEFINED 1086763316500                       # Cumulative time (in ticks) in various power states
system.cpu.dcache.ReadReq_hits::cpu.data    223729766                       # number of ReadReq hits
system.cpu.dcache.ReadReq_hits::total       223729766                       # number of ReadReq hits
system.cpu.dcache.WriteReq_hits::cpu.data     69320188                       # number of WriteReq hits
system.cpu.dcache.WriteReq_hits::total       69320188                       # number of WriteReq hits
system.cpu.dcache.demand_hits::cpu.data     293049954                       # number of demand (read+write) hits
system.cpu.dcache.demand_hits::total        293049954                       # number of demand (read+write) hits
system.cpu.dcache.overall_hits::cpu.data    293049954                       # number of overall hits
system.cpu.dcache.overall_hits::total       293049954                       # number of overall hits
system.cpu.dcache.ReadReq_misses::cpu.data      2200608                       # number of ReadReq misses
system.cpu.dcache.ReadReq_misses::total       2200608                       # number of ReadReq misses
system.cpu.dcache.WriteReq_misses::cpu.data       718523                       # number of WriteReq misses
system.cpu.dcache.WriteReq_misses::total       718523                       # number of WriteReq misses
system.cpu.dcache.SoftPFReq_misses::cpu.data        16384                       # number of SoftPFReq misses
system.cpu.dcache.SoftPFReq_misses::total        16384                       # number of SoftPFReq misses
system.cpu.dcache.demand_misses::cpu.data      2919131                       # number of demand (read+write) misses
system.cpu.dcache.demand_misses::total        2919131                       # number of demand (read+write) misses
system.cpu.dcache.overall_misses::cpu.data      2935515                       # number of overall misses
system.cpu.dcache.overall_misses::total       2935515                       # number of overall misses
system.cpu.dcache.ReadReq_miss_latency::cpu.data  68885381000                       # number of ReadReq miss cycles
system.cpu.dcache.ReadReq_miss_latency::total  68885381000                       # number of ReadReq miss cycles
system.cpu.dcache.WriteReq_miss_latency::cpu.data  37176011500                       # number of WriteReq miss cycles
system.cpu.dcache.WriteReq_miss_latency::total  37176011500                       # number of WriteReq miss cycles
system.cpu.dcache.demand_miss_latency::cpu.data 106061392500                       # number of demand (read+write) miss cycles
system.cpu.dcache.demand_miss_latency::total 106061392500                       # number of demand (read+write) miss cycles
system.cpu.dcache.overall_miss_latency::cpu.data 106061392500                       # number of overall miss cycles
system.cpu.dcache.overall_miss_latency::total 106061392500                       # number of overall miss cycles
system.cpu.dcache.ReadReq_accesses::cpu.data    225930374                       # number of ReadReq accesses(hits+misses)
system.cpu.dcache.ReadReq_accesses::total    225930374                       # number of ReadReq accesses(hits+misses)
system.cpu.dcache.WriteReq_accesses::cpu.data     70038711                       # number of WriteReq accesses(hits+misses)
system.cpu.dcache.WriteReq_accesses::total     70038711                       # number of WriteReq accesses(hits+misses)
system.cpu.dcache.SoftPFReq_accesses::cpu.data        16384                       # number of SoftPFReq accesses(hits+misses)
system.cpu.dcache.SoftPFReq_accesses::total        16384                       # number of SoftPFReq accesses(hits+misses)
system.cpu.dcache.demand_accesses::cpu.data    295969085                       # number of demand (read+write) accesses
system.cpu.dcache.demand_accesses::total    295969085                       # number of demand (read+write) accesses
system.cpu.dcache.overall_accesses::cpu.data    295985469                       # number of overall (read+write) accesses
system.cpu.dcache.overall_accesses::total    295985469                       # number of overall (read+write) accesses
system.cpu.dcache.ReadReq_miss_rate::cpu.data     0.009740                       # miss rate for ReadReq accesses
system.cpu.dcache.ReadReq_miss_rate::total     0.009740                       # miss rate for ReadReq accesses
system.cpu.dcache.WriteReq_miss_rate::cpu.data     0.010259                       # miss rate for WriteReq accesses
system.cpu.dcache.WriteReq_miss_rate::total     0.010259                       # miss rate for WriteReq accesses
system.cpu.dcache.SoftPFReq_miss_rate::cpu.data            1                       # miss rate for SoftPFReq accesses
system.cpu.dcache.SoftPFReq_miss_rate::total            1                       # miss rate for SoftPFReq accesses
system.cpu.dcache.demand_miss_rate::cpu.data     0.009863                       # miss rate for demand accesses
system.cpu.dcache.demand_miss_rate::total     0.009863                       # miss rate for demand accesses
system.cpu.dcache.overall_miss_rate::cpu.data     0.009918                       # miss rate for overall accesses
system.cpu.dcache.overall_miss_rate::total     0.009918                       # miss rate for overall accesses
system.cpu.dcache.ReadReq_avg_miss_latency::cpu.data 31302.885839                       # average ReadReq miss latency
system.cpu.dcache.ReadReq_avg_miss_latency::total 31302.885839                       # average ReadReq miss latency
system.cpu.dcache.WriteReq_avg_miss_latency::cpu.data 51739.487115                       # average WriteReq miss latency
system.cpu.dcache.WriteReq_avg_miss_latency::total 51739.487115                       # average WriteReq miss latency
system.cpu.dcache.demand_avg_miss_latency::cpu.data 36333.207554                       # average overall miss latency
system.cpu.dcache.demand_avg_miss_latency::total 36333.207554                       # average overall miss latency
system.cpu.dcache.overall_avg_miss_latency::cpu.data 36130.420897                       # average overall miss latency
system.cpu.dcache.overall_avg_miss_latency::total 36130.420897                       # average overall miss latency
system.cpu.dcache.blocked_cycles::no_mshrs       298149                       # number of cycles access was blocked
system.cpu.dcache.blocked_cycles::no_targets            0                       # number of cycles access was blocked
system.cpu.dcache.blocked::no_mshrs              5182                       # number of cycles access was blocked
system.cpu.dcache.blocked::no_targets               0                       # number of cycles access was blocked
system.cpu.dcache.avg_blocked_cycles::no_mshrs    57.535508                       # average number of cycles each access was blocked
system.cpu.dcache.avg_blocked_cycles::no_targets          nan                       # average number of cycles each access was blocked
system.cpu.dcache.writebacks::writebacks      1460174                       # number of writebacks
system.cpu.dcache.writebacks::total           1460174                       # number of writebacks
system.cpu.dcache.ReadReq_mshr_misses::cpu.data      2200608                       # number of ReadReq MSHR misses
system.cpu.dcache.ReadReq_mshr_misses::total      2200608                       # number of ReadReq MSHR misses
system.cpu.dcache.WriteReq_mshr_misses::cpu.data       718523                       # number of WriteReq MSHR misses
system.cpu.dcache.WriteReq_mshr_misses::total       718523                       # number of WriteReq MSHR misses
system.cpu.dcache.SoftPFReq_mshr_misses::cpu.data        16384                       # number of SoftPFReq MSHR misses
system.cpu.dcache.SoftPFReq_mshr_misses::total        16384                       # number of SoftPFReq MSHR misses
system.cpu.dcache.demand_mshr_misses::cpu.data      2919131                       # number of demand (read+write) MSHR misses
system.cpu.dcache.demand_mshr_misses::total      2919131                       # number of demand (read+write) MSHR misses
system.cpu.dcache.overall_mshr_misses::cpu.data      2935515                       # number of overall MSHR misses
system.cpu.dcache.overall_mshr_misses::total      2935515                       # number of overall MSHR misses
system.cpu.dcache.ReadReq_mshr_miss_latency::cpu.data  66684773000                       # number of ReadReq MSHR miss cycles
system.cpu.dcache.ReadReq_mshr_miss_latency::total  66684773000                       # number of ReadReq MSHR miss cycles
system.cpu.dcache.WriteReq_mshr_miss_latency::cpu.data  36457488500                       # number of WriteReq MSHR miss cycles
system.cpu.dcache.WriteReq_mshr_miss_latency::total  36457488500                       # number of WriteReq MSHR miss cycles
system.cpu.dcache.SoftPFReq_mshr_miss_latency::cpu.data   1404564479                       # number of SoftPFReq MSHR miss cycles
system.cpu.dcache.SoftPFReq_mshr_miss_latency::total   1404564479                       # number of SoftPFReq MSHR miss cycles
system.cpu.dcache.demand_mshr_miss_latency::cpu.data 103142261500                       # number of demand (read+write) MSHR miss cycles
system.cpu.dcache.demand_mshr_miss_latency::total 103142261500                       # number of demand (read+write) MSHR miss cycles
system.cpu.dcache.overall_mshr_miss_latency::cpu.data 104546825979                       # number of overall MSHR miss cycles
system.cpu.dcache.overall_mshr_miss_latency::total 104546825979                       # number of overall MSHR miss cycles
system.cpu.dcache.ReadReq_mshr_miss_rate::cpu.data     0.009740                       # mshr miss rate for ReadReq accesses
system.cpu.dcache.ReadReq_mshr_miss_rate::total     0.009740                       # mshr miss rate for ReadReq accesses
system.cpu.dcache.WriteReq_mshr_miss_rate::cpu.data     0.010259                       # mshr miss rate for WriteReq accesses
system.cpu.dcache.WriteReq_mshr_miss_rate::total     0.010259                       # mshr miss rate for WriteReq accesses
system.cpu.dcache.SoftPFReq_mshr_miss_rate::cpu.data            1                       # mshr miss rate for SoftPFReq accesses
system.cpu.dcache.SoftPFReq_mshr_miss_rate::total            1                       # mshr miss rate for SoftPFReq accesses
system.cpu.dcache.demand_mshr_miss_rate::cpu.data     0.009863                       # mshr miss rate for demand accesses
system.cpu.dcache.demand_mshr_miss_rate::total     0.009863                       # mshr miss rate for demand accesses
system.cpu.dcache.overall_mshr_miss_rate::cpu.data     0.009918                       # mshr miss rate for overall accesses
system.cpu.dcache.overall_mshr_miss_rate::total     0.009918                       # mshr miss rate for overall accesses
system.cpu.dcache.ReadReq_avg_mshr_miss_latency::cpu.data 30302.885839                       # average ReadReq mshr miss latency
system.cpu.dcache.ReadReq_avg_mshr_miss_latency::total 30302.885839                       # average ReadReq mshr miss latency
system.cpu.dcache.WriteReq_avg_mshr_miss_latency::cpu.data 50739.487115                       # average WriteReq mshr miss latency
system.cpu.dcache.WriteReq_avg_mshr_miss_latency::total 50739.487115                       # average WriteReq mshr miss latency
system.cpu.dcache.SoftPFReq_avg_mshr_miss_latency::cpu.data 85727.812439                       # average SoftPFReq mshr miss latency
system.cpu.dcache.SoftPFReq_avg_mshr_miss_latency::total 85727.812439                       # average SoftPFReq mshr miss latency
system.cpu.dcache.demand_avg_mshr_miss_latency::cpu.data 35333.207554                       # average overall mshr miss latency
system.cpu.dcache.demand_avg_mshr_miss_latency::total 35333.207554                       # average overall mshr miss latency
system.cpu.dcache.overall_avg_mshr_miss_latency::cpu.data 35614.475136                       # average overall mshr miss latency
system.cpu.dcache.overall_avg_mshr_miss_latency::total 35614.475136                       # average overall mshr miss latency
system.cpu.dtb_walker_cache.tags.pwrStateResidencyTicks::UNDEFINED 1086763316500                       # Cumulative time (in ticks) in various power states
system.cpu.dtb_walker_cache.tags.replacements            0                       # number of replacements
system.cpu.dtb_walker_cache.tags.tagsinuse            0                       # Cycle average of tags in use
system.cpu.dtb_walker_cache.tags.total_refs            0                       # Total number of references to valid blocks.
system.cpu.dtb_walker_cache.tags.sampled_refs            0                       # Sample count of references to valid blocks.
system.cpu.dtb_walker_cache.tags.avg_refs          nan                       # Average number of references to valid blocks.
system.cpu.dtb_walker_cache.tags.warmup_cycle            0                       # Cycle when the warmup percentage was hit.
system.cpu.dtb_walker_cache.tags.tag_accesses            0                       # Number of tag accesses
system.cpu.dtb_walker_cache.tags.data_accesses            0                       # Number of data accesses
system.cpu.dtb_walker_cache.pwrStateResidencyTicks::UNDEFINED 1086763316500                       # Cumulative time (in ticks) in various power states
system.cpu.dtb_walker_cache.blocked_cycles::no_mshrs            0                       # number of cycles access was blocked
system.cpu.dtb_walker_cache.blocked_cycles::no_targets            0                       # number of cycles access was blocked
system.cpu.dtb_walker_cache.blocked::no_mshrs            0                       # number of cycles access was blocked
system.cpu.dtb_walker_cache.blocked::no_targets            0                       # number of cycles access was blocked
system.cpu.dtb_walker_cache.avg_blocked_cycles::no_mshrs          nan                       # average number of cycles each access was blocked
system.cpu.dtb_walker_cache.avg_blocked_cycles::no_targets          nan                       # average number of cycles each access was blocked
system.cpu.icache.tags.pwrStateResidencyTicks::UNDEFINED 1086763316500                       # Cumulative time (in ticks) in various power states
system.cpu.icache.tags.replacements               300                       # number of replacements
system.cpu.icache.tags.tagsinuse           552.619789                       # Cycle average of tags in use
system.cpu.icache.tags.total_refs           687396837                       # Total number of references to valid blocks.
system.cpu.icache.tags.sampled_refs              1025                       # Sample count of references to valid blocks.
system.cpu.icache.tags.avg_refs          670631.060488                       # Average number of references to valid blocks.
system.cpu.icache.tags.warmup_cycle                 0                       # Cycle when the warmup percentage was hit.
system.cpu.icache.tags.occ_blocks::cpu.inst   552.619789                       # Average occupied blocks per requestor
system.cpu.icache.tags.occ_percent::cpu.inst     0.539668                       # Average percentage of cache occupancy
system.cpu.icache.tags.occ_percent::total     0.539668                       # Average percentage of cache occupancy
system.cpu.icache.tags.occ_task_id_blocks::1024          725                       # Occupied blocks per task id
system.cpu.icache.tags.age_task_id_blocks_1024::1            7                       # Occupied blocks per task id
system.cpu.icache.tags.age_task_id_blocks_1024::3           25                       # Occupied blocks per task id
system.cpu.icache.tags.age_task_id_blocks_1024::4          693                       # Occupied blocks per task id
system.cpu.icache.tags.occ_task_id_percent::1024     0.708008                       # Percentage of cache occupancy per task id
system.cpu.icache.tags.tag_accesses         687398887                       # Number of tag accesses
system.cpu.icache.tags.data_accesses        687398887                       # Number of data accesses
system.cpu.icache.pwrStateResidencyTicks::UNDEFINED 1086763316500                       # Cumulative time (in ticks) in various power states
system.cpu.icache.ReadReq_hits::cpu.inst    687396837                       # number of ReadReq hits
system.cpu.icache.ReadReq_hits::total       687396837                       # number of ReadReq hits
system.cpu.icache.demand_hits::cpu.inst     687396837                       # number of demand (read+write) hits
system.cpu.icache.demand_hits::total        687396837                       # number of demand (read+write) hits
system.cpu.icache.overall_hits::cpu.inst    687396837                       # number of overall hits
system.cpu.icache.overall_hits::total       687396837                       # number of overall hits
system.cpu.icache.ReadReq_misses::cpu.inst         1025                       # number of ReadReq misses
system.cpu.icache.ReadReq_misses::total          1025                       # number of ReadReq misses
system.cpu.icache.demand_misses::cpu.inst         1025                       # number of demand (read+write) misses
system.cpu.icache.demand_misses::total           1025                       # number of demand (read+write) misses
system.cpu.icache.overall_misses::cpu.inst         1025                       # number of overall misses
system.cpu.icache.overall_misses::total          1025                       # number of overall misses
system.cpu.icache.ReadReq_miss_latency::cpu.inst     97407000                       # number of ReadReq miss cycles
system.cpu.icache.ReadReq_miss_latency::total     97407000                       # number of ReadReq miss cycles
system.cpu.icache.demand_miss_latency::cpu.inst     97407000                       # number of demand (read+write) miss cycles
system.cpu.icache.demand_miss_latency::total     97407000                       # number of demand (read+write) miss cycles
system.cpu.icache.overall_miss_latency::cpu.inst     97407000                       # number of overall miss cycles
system.cpu.icache.overall_miss_latency::total     97407000                       # number of overall miss cycles
system.cpu.icache.ReadReq_accesses::cpu.inst    687397862                       # number of ReadReq accesses(hits+misses)
system.cpu.icache.ReadReq_accesses::total    687397862                       # number of ReadReq accesses(hits+misses)
system.cpu.icache.demand_accesses::cpu.inst    687397862                       # number of demand (read+write) accesses
system.cpu.icache.demand_accesses::total    687397862                       # number of demand (read+write) accesses
system.cpu.icache.overall_accesses::cpu.inst    687397862                       # number of overall (read+write) accesses
system.cpu.icache.overall_accesses::total    687397862                       # number of overall (read+write) accesses
system.cpu.icache.ReadReq_miss_rate::cpu.inst     0.000001                       # miss rate for ReadReq accesses
system.cpu.icache.ReadReq_miss_rate::total     0.000001                       # miss rate for ReadReq accesses
system.cpu.icache.demand_miss_rate::cpu.inst     0.000001                       # miss rate for demand accesses
system.cpu.icache.demand_miss_rate::total     0.000001                       # miss rate for demand accesses
system.cpu.icache.overall_miss_rate::cpu.inst     0.000001                       # miss rate for overall accesses
system.cpu.icache.overall_miss_rate::total     0.000001                       # miss rate for overall accesses
system.cpu.icache.ReadReq_avg_miss_latency::cpu.inst 95031.219512                       # average ReadReq miss latency
system.cpu.icache.ReadReq_avg_miss_latency::total 95031.219512                       # average ReadReq miss latency
system.cpu.icache.demand_avg_miss_latency::cpu.inst 95031.219512                       # average overall miss latency
system.cpu.icache.demand_avg_miss_latency::total 95031.219512                       # average overall miss latency
system.cpu.icache.overall_avg_miss_latency::cpu.inst 95031.219512                       # average overall miss latency
system.cpu.icache.overall_avg_miss_latency::total 95031.219512                       # average overall miss latency
system.cpu.icache.blocked_cycles::no_mshrs            0                       # number of cycles access was blocked
system.cpu.icache.blocked_cycles::no_targets            0                       # number of cycles access was blocked
system.cpu.icache.blocked::no_mshrs                 0                       # number of cycles access was blocked
system.cpu.icache.blocked::no_targets               0                       # number of cycles access was blocked
system.cpu.icache.avg_blocked_cycles::no_mshrs          nan                       # average number of cycles each access was blocked
system.cpu.icache.avg_blocked_cycles::no_targets          nan                       # average number of cycles each access was blocked
system.cpu.icache.writebacks::writebacks          300                       # number of writebacks
system.cpu.icache.writebacks::total               300                       # number of writebacks
system.cpu.icache.ReadReq_mshr_misses::cpu.inst         1025                       # number of ReadReq MSHR misses
system.cpu.icache.ReadReq_mshr_misses::total         1025                       # number of ReadReq MSHR misses
system.cpu.icache.demand_mshr_misses::cpu.inst         1025                       # number of demand (read+write) MSHR misses
system.cpu.icache.demand_mshr_misses::total         1025                       # number of demand (read+write) MSHR misses
system.cpu.icache.overall_mshr_misses::cpu.inst         1025                       # number of overall MSHR misses
system.cpu.icache.overall_mshr_misses::total         1025                       # number of overall MSHR misses
system.cpu.icache.ReadReq_mshr_miss_latency::cpu.inst     96382000                       # number of ReadReq MSHR miss cycles
system.cpu.icache.ReadReq_mshr_miss_latency::total     96382000                       # number of ReadReq MSHR miss cycles
system.cpu.icache.demand_mshr_miss_latency::cpu.inst     96382000                       # number of demand (read+write) MSHR miss cycles
system.cpu.icache.demand_mshr_miss_latency::total     96382000                       # number of demand (read+write) MSHR miss cycles
system.cpu.icache.overall_mshr_miss_latency::cpu.inst     96382000                       # number of overall MSHR miss cycles
system.cpu.icache.overall_mshr_miss_latency::total     96382000                       # number of overall MSHR miss cycles
system.cpu.icache.ReadReq_mshr_miss_rate::cpu.inst     0.000001                       # mshr miss rate for ReadReq accesses
system.cpu.icache.ReadReq_mshr_miss_rate::total     0.000001                       # mshr miss rate for ReadReq accesses
system.cpu.icache.demand_mshr_miss_rate::cpu.inst     0.000001                       # mshr miss rate for demand accesses
system.cpu.icache.demand_mshr_miss_rate::total     0.000001                       # mshr miss rate for demand accesses
system.cpu.icache.overall_mshr_miss_rate::cpu.inst     0.000001                       # mshr miss rate for overall accesses
system.cpu.icache.overall_mshr_miss_rate::total     0.000001                       # mshr miss rate for overall accesses
system.cpu.icache.ReadReq_avg_mshr_miss_latency::cpu.inst 94031.219512                       # average ReadReq mshr miss latency
system.cpu.icache.ReadReq_avg_mshr_miss_latency::total 94031.219512                       # average ReadReq mshr miss latency
system.cpu.icache.demand_avg_mshr_miss_latency::cpu.inst 94031.219512                       # average overall mshr miss latency
system.cpu.icache.demand_avg_mshr_miss_latency::total 94031.219512                       # average overall mshr miss latency
system.cpu.icache.overall_avg_mshr_miss_latency::cpu.inst 94031.219512                       # average overall mshr miss latency
system.cpu.icache.overall_avg_mshr_miss_latency::total 94031.219512                       # average overall mshr miss latency
system.cpu.itb_walker_cache.tags.pwrStateResidencyTicks::UNDEFINED 1086763316500                       # Cumulative time (in ticks) in various power states
system.cpu.itb_walker_cache.tags.replacements            0                       # number of replacements
system.cpu.itb_walker_cache.tags.tagsinuse            0                       # Cycle average of tags in use
system.cpu.itb_walker_cache.tags.total_refs            0                       # Total number of references to valid blocks.
system.cpu.itb_walker_cache.tags.sampled_refs            0                       # Sample count of references to valid blocks.
system.cpu.itb_walker_cache.tags.avg_refs          nan                       # Average number of references to valid blocks.
system.cpu.itb_walker_cache.tags.warmup_cycle            0                       # Cycle when the warmup percentage was hit.
system.cpu.itb_walker_cache.tags.tag_accesses            0                       # Number of tag accesses
system.cpu.itb_walker_cache.tags.data_accesses            0                       # Number of data accesses
system.cpu.itb_walker_cache.pwrStateResidencyTicks::UNDEFINED 1086763316500                       # Cumulative time (in ticks) in various power states
system.cpu.itb_walker_cache.blocked_cycles::no_mshrs            0                       # number of cycles access was blocked
system.cpu.itb_walker_cache.blocked_cycles::no_targets            0                       # number of cycles access was blocked
system.cpu.itb_walker_cache.blocked::no_mshrs            0                       # number of cycles access was blocked
system.cpu.itb_walker_cache.blocked::no_targets            0                       # number of cycles access was blocked
system.cpu.itb_walker_cache.avg_blocked_cycles::no_mshrs          nan                       # average number of cycles each access was blocked
system.cpu.itb_walker_cache.avg_blocked_cycles::no_targets          nan                       # average number of cycles each access was blocked
system.l2.tags.pwrStateResidencyTicks::UNDEFINED 1086763316500                       # Cumulative time (in ticks) in various power states
system.l2.tags.replacements                    792347                       # number of replacements
system.l2.tags.tagsinuse                 16328.490640                       # Cycle average of tags in use
system.l2.tags.total_refs                     5019613                       # Total number of references to valid blocks.
system.l2.tags.sampled_refs                    808731                       # Sample count of references to valid blocks.
system.l2.tags.avg_refs                      6.206777                       # Average number of references to valid blocks.
system.l2.tags.warmup_cycle                4864920000                       # Cycle when the warmup percentage was hit.
system.l2.tags.occ_blocks::writebacks      289.950495                       # Average occupied blocks per requestor
system.l2.tags.occ_blocks::cpu.inst          4.406463                       # Average occupied blocks per requestor
system.l2.tags.occ_blocks::cpu.data      16034.133681                       # Average occupied blocks per requestor
system.l2.tags.occ_percent::writebacks       0.017697                       # Average percentage of cache occupancy
system.l2.tags.occ_percent::cpu.inst         0.000269                       # Average percentage of cache occupancy
system.l2.tags.occ_percent::cpu.data         0.978646                       # Average percentage of cache occupancy
system.l2.tags.occ_percent::total            0.996612                       # Average percentage of cache occupancy
system.l2.tags.occ_task_id_blocks::1024         16384                       # Occupied blocks per task id
system.l2.tags.age_task_id_blocks_1024::1           15                       # Occupied blocks per task id
system.l2.tags.age_task_id_blocks_1024::2           16                       # Occupied blocks per task id
system.l2.tags.age_task_id_blocks_1024::3          303                       # Occupied blocks per task id
system.l2.tags.age_task_id_blocks_1024::4        16050                       # Occupied blocks per task id
system.l2.tags.occ_task_id_percent::1024            1                       # Percentage of cache occupancy per task id
system.l2.tags.tag_accesses                   6680061                       # Number of tag accesses
system.l2.tags.data_accesses                  6680061                       # Number of data accesses
system.l2.pwrStateResidencyTicks::UNDEFINED 1086763316500                       # Cumulative time (in ticks) in various power states
system.l2.WritebackDirty_hits::writebacks      1460174                       # number of WritebackDirty hits
system.l2.WritebackDirty_hits::total          1460174                       # number of WritebackDirty hits
system.l2.WritebackClean_hits::writebacks          300                       # number of WritebackClean hits
system.l2.WritebackClean_hits::total              300                       # number of WritebackClean hits
system.l2.ReadExReq_hits::cpu.data             404368                       # number of ReadExReq hits
system.l2.ReadExReq_hits::total                404368                       # number of ReadExReq hits
system.l2.ReadCleanReq_hits::cpu.inst              23                       # number of ReadCleanReq hits
system.l2.ReadCleanReq_hits::total                 23                       # number of ReadCleanReq hits
system.l2.ReadSharedReq_hits::cpu.data        1770460                       # number of ReadSharedReq hits
system.l2.ReadSharedReq_hits::total           1770460                       # number of ReadSharedReq hits
system.l2.demand_hits::cpu.inst                    23                       # number of demand (read+write) hits
system.l2.demand_hits::cpu.data               2174828                       # number of demand (read+write) hits
system.l2.demand_hits::total                  2174851                       # number of demand (read+write) hits
system.l2.overall_hits::cpu.inst                   23                       # number of overall hits
system.l2.overall_hits::cpu.data              2174828                       # number of overall hits
system.l2.overall_hits::total                 2174851                       # number of overall hits
system.l2.ReadExReq_misses::cpu.data           314155                       # number of ReadExReq misses
system.l2.ReadExReq_misses::total              314155                       # number of ReadExReq misses
system.l2.ReadCleanReq_misses::cpu.inst          1002                       # number of ReadCleanReq misses
system.l2.ReadCleanReq_misses::total             1002                       # number of ReadCleanReq misses
system.l2.ReadSharedReq_misses::cpu.data       446532                       # number of ReadSharedReq misses
system.l2.ReadSharedReq_misses::total          446532                       # number of ReadSharedReq misses
system.l2.demand_misses::cpu.inst                1002                       # number of demand (read+write) misses
system.l2.demand_misses::cpu.data              760687                       # number of demand (read+write) misses
system.l2.demand_misses::total                 761689                       # number of demand (read+write) misses
system.l2.overall_misses::cpu.inst               1002                       # number of overall misses
system.l2.overall_misses::cpu.data             760687                       # number of overall misses
system.l2.overall_misses::total                761689                       # number of overall misses
system.l2.ReadExReq_miss_latency::cpu.data  31133805500                       # number of ReadExReq miss cycles
system.l2.ReadExReq_miss_latency::total   31133805500                       # number of ReadExReq miss cycles
system.l2.ReadCleanReq_miss_latency::cpu.inst     94600500                       # number of ReadCleanReq miss cycles
system.l2.ReadCleanReq_miss_latency::total     94600500                       # number of ReadCleanReq miss cycles
system.l2.ReadSharedReq_miss_latency::cpu.data  46172418500                       # number of ReadSharedReq miss cycles
system.l2.ReadSharedReq_miss_latency::total  46172418500                       # number of ReadSharedReq miss cycles
system.l2.demand_miss_latency::cpu.inst      94600500                       # number of demand (read+write) miss cycles
system.l2.demand_miss_latency::cpu.data   77306224000                       # number of demand (read+write) miss cycles
system.l2.demand_miss_latency::total      77400824500                       # number of demand (read+write) miss cycles
system.l2.overall_miss_latency::cpu.inst     94600500                       # number of overall miss cycles
system.l2.overall_miss_latency::cpu.data  77306224000                       # number of overall miss cycles
system.l2.overall_miss_latency::total     77400824500                       # number of overall miss cycles
system.l2.WritebackDirty_accesses::writebacks      1460174                       # number of WritebackDirty accesses(hits+misses)
system.l2.WritebackDirty_accesses::total      1460174                       # number of WritebackDirty accesses(hits+misses)
system.l2.WritebackClean_accesses::writebacks          300                       # number of WritebackClean accesses(hits+misses)
system.l2.WritebackClean_accesses::total          300                       # number of WritebackClean accesses(hits+misses)
system.l2.ReadExReq_accesses::cpu.data         718523                       # number of ReadExReq accesses(hits+misses)
system.l2.ReadExReq_accesses::total            718523                       # number of ReadExReq accesses(hits+misses)
system.l2.ReadCleanReq_accesses::cpu.inst         1025                       # number of ReadCleanReq accesses(hits+misses)
system.l2.ReadCleanReq_accesses::total           1025                       # number of ReadCleanReq accesses(hits+misses)
system.l2.ReadSharedReq_accesses::cpu.data      2216992                       # number of ReadSharedReq accesses(hits+misses)
system.l2.ReadSharedReq_accesses::total       2216992                       # number of ReadSharedReq accesses(hits+misses)
system.l2.demand_accesses::cpu.inst              1025                       # number of demand (read+write) accesses
system.l2.demand_accesses::cpu.data           2935515                       # number of demand (read+write) accesses
system.l2.demand_accesses::total              2936540                       # number of demand (read+write) accesses
system.l2.overall_accesses::cpu.inst             1025                       # number of overall (read+write) accesses
system.l2.overall_accesses::cpu.data          2935515                       # number of overall (read+write) accesses
system.l2.overall_accesses::total             2936540                       # number of overall (read+write) accesses
system.l2.ReadExReq_miss_rate::cpu.data      0.437223                       # miss rate for ReadExReq accesses
system.l2.ReadExReq_miss_rate::total         0.437223                       # miss rate for ReadExReq accesses
system.l2.ReadCleanReq_miss_rate::cpu.inst     0.977561                       # miss rate for ReadCleanReq accesses
system.l2.ReadCleanReq_miss_rate::total      0.977561                       # miss rate for ReadCleanReq accesses
system.l2.ReadSharedReq_miss_rate::cpu.data     0.201413                       # miss rate for ReadSharedReq accesses
system.l2.ReadSharedReq_miss_rate::total     0.201413                       # miss rate for ReadSharedReq accesses
system.l2.demand_miss_rate::cpu.inst         0.977561                       # miss rate for demand accesses
system.l2.demand_miss_rate::cpu.data         0.259132                       # miss rate for demand accesses
system.l2.demand_miss_rate::total            0.259383                       # miss rate for demand accesses
system.l2.overall_miss_rate::cpu.inst        0.977561                       # miss rate for overall accesses
system.l2.overall_miss_rate::cpu.data        0.259132                       # miss rate for overall accesses
system.l2.overall_miss_rate::total           0.259383                       # miss rate for overall accesses
system.l2.ReadExReq_avg_miss_latency::cpu.data 99103.326383                       # average ReadExReq miss latency
system.l2.ReadExReq_avg_miss_latency::total 99103.326383                       # average ReadExReq miss latency
system.l2.ReadCleanReq_avg_miss_latency::cpu.inst 94411.676647                       # average ReadCleanReq miss latency
system.l2.ReadCleanReq_avg_miss_latency::total 94411.676647                       # average ReadCleanReq miss latency
system.l2.ReadSharedReq_avg_miss_latency::cpu.data 103402.261204                       # average ReadSharedReq miss latency
system.l2.ReadSharedReq_avg_miss_latency::total 103402.261204                       # average ReadSharedReq miss latency
system.l2.demand_avg_miss_latency::cpu.inst 94411.676647                       # average overall miss latency
system.l2.demand_avg_miss_latency::cpu.data 101626.850465                       # average overall miss latency
system.l2.demand_avg_miss_latency::total 101617.358922                       # average overall miss latency
system.l2.overall_avg_miss_latency::cpu.inst 94411.676647                       # average overall miss latency
system.l2.overall_avg_miss_latency::cpu.data 101626.850465                       # average overall miss latency
system.l2.overall_avg_miss_latency::total 101617.358922                       # average overall miss latency
system.l2.blocked_cycles::no_mshrs                  0                       # number of cycles access was blocked
system.l2.blocked_cycles::no_targets                0                       # number of cycles access was blocked
system.l2.blocked::no_mshrs                         0                       # number of cycles access was blocked
system.l2.blocked::no_targets                       0                       # number of cycles access was blocked
system.l2.avg_blocked_cycles::no_mshrs            nan                       # average number of cycles each access was blocked
system.l2.avg_blocked_cycles::no_targets          nan                       # average number of cycles each access was blocked
system.l2.writebacks::writebacks               398185                       # number of writebacks
system.l2.writebacks::total                    398185                       # number of writebacks
system.l2.CleanEvict_mshr_misses::writebacks        42986                       # number of CleanEvict MSHR misses
system.l2.CleanEvict_mshr_misses::total         42986                       # number of CleanEvict MSHR misses
system.l2.ReadExReq_mshr_misses::cpu.data       314155                       # number of ReadExReq MSHR misses
system.l2.ReadExReq_mshr_misses::total         314155                       # number of ReadExReq MSHR misses
system.l2.ReadCleanReq_mshr_misses::cpu.inst         1002                       # number of ReadCleanReq MSHR misses
system.l2.ReadCleanReq_mshr_misses::total         1002                       # number of ReadCleanReq MSHR misses
system.l2.ReadSharedReq_mshr_misses::cpu.data       446532                       # number of ReadSharedReq MSHR misses
system.l2.ReadSharedReq_mshr_misses::total       446532                       # number of ReadSharedReq MSHR misses
system.l2.demand_mshr_misses::cpu.inst           1002                       # number of demand (read+write) MSHR misses
system.l2.demand_mshr_misses::cpu.data         760687                       # number of demand (read+write) MSHR misses
system.l2.demand_mshr_misses::total            761689                       # number of demand (read+write) MSHR misses
system.l2.overall_mshr_misses::cpu.inst          1002                       # number of overall MSHR misses
system.l2.overall_mshr_misses::cpu.data        760687                       # number of overall MSHR misses
system.l2.overall_mshr_misses::total           761689                       # number of overall MSHR misses
system.l2.ReadExReq_mshr_miss_latency::cpu.data  27992255500                       # number of ReadExReq MSHR miss cycles
system.l2.ReadExReq_mshr_miss_latency::total  27992255500                       # number of ReadExReq MSHR miss cycles
system.l2.ReadCleanReq_mshr_miss_latency::cpu.inst     84580500                       # number of ReadCleanReq MSHR miss cycles
system.l2.ReadCleanReq_mshr_miss_latency::total     84580500                       # number of ReadCleanReq MSHR miss cycles
system.l2.ReadSharedReq_mshr_miss_latency::cpu.data  41707098500                       # number of ReadSharedReq MSHR miss cycles
system.l2.ReadSharedReq_mshr_miss_latency::total  41707098500                       # number of ReadSharedReq MSHR miss cycles
system.l2.demand_mshr_miss_latency::cpu.inst     84580500                       # number of demand (read+write) MSHR miss cycles
system.l2.demand_mshr_miss_latency::cpu.data  69699354000                       # number of demand (read+write) MSHR miss cycles
system.l2.demand_mshr_miss_latency::total  69783934500                       # number of demand (read+write) MSHR miss cycles
system.l2.overall_mshr_miss_latency::cpu.inst     84580500                       # number of overall MSHR miss cycles
system.l2.overall_mshr_miss_latency::cpu.data  69699354000                       # number of overall MSHR miss cycles
system.l2.overall_mshr_miss_latency::total  69783934500                       # number of overall MSHR miss cycles
system.l2.CleanEvict_mshr_miss_rate::writebacks          inf                       # mshr miss rate for CleanEvict accesses
system.l2.CleanEvict_mshr_miss_rate::total          inf                       # mshr miss rate for CleanEvict accesses
system.l2.ReadExReq_mshr_miss_rate::cpu.data     0.437223                       # mshr miss rate for ReadExReq accesses
system.l2.ReadExReq_mshr_miss_rate::total     0.437223                       # mshr miss rate for ReadExReq accesses
system.l2.ReadCleanReq_mshr_miss_rate::cpu.inst     0.977561                       # mshr miss rate for ReadCleanReq accesses
system.l2.ReadCleanReq_mshr_miss_rate::total     0.977561                       # mshr miss rate for ReadCleanReq accesses
system.l2.ReadSharedReq_mshr_miss_rate::cpu.data     0.201413                       # mshr miss rate for ReadSharedReq accesses
system.l2.ReadSharedReq_mshr_miss_rate::total     0.201413                       # mshr miss rate for ReadSharedReq accesses
system.l2.demand_mshr_miss_rate::cpu.inst     0.977561                       # mshr miss rate for demand accesses
system.l2.demand_mshr_miss_rate::cpu.data     0.259132                       # mshr miss rate for demand accesses
system.l2.demand_mshr_miss_rate::total       0.259383                       # mshr miss rate for demand accesses
system.l2.overall_mshr_miss_rate::cpu.inst     0.977561                       # mshr miss rate for overall accesses
system.l2.overall_mshr_miss_rate::cpu.data     0.259132                       # mshr miss rate for overall accesses
system.l2.overall_mshr_miss_rate::total      0.259383                       # mshr miss rate for overall accesses
system.l2.ReadExReq_avg_mshr_miss_latency::cpu.data 89103.326383                       # average ReadExReq mshr miss latency
system.l2.ReadExReq_avg_mshr_miss_latency::total 89103.326383                       # average ReadExReq mshr miss latency
system.l2.ReadCleanReq_avg_mshr_miss_latency::cpu.inst 84411.676647                       # average ReadCleanReq mshr miss latency
system.l2.ReadCleanReq_avg_mshr_miss_latency::total 84411.676647                       # average ReadCleanReq mshr miss latency
system.l2.ReadSharedReq_avg_mshr_miss_latency::cpu.data 93402.261204                       # average ReadSharedReq mshr miss latency
system.l2.ReadSharedReq_avg_mshr_miss_latency::total 93402.261204                       # average ReadSharedReq mshr miss latency
system.l2.demand_avg_mshr_miss_latency::cpu.inst 84411.676647                       # average overall mshr miss latency
system.l2.demand_avg_mshr_miss_latency::cpu.data 91626.850465                       # average overall mshr miss latency
system.l2.demand_avg_mshr_miss_latency::total 91617.358922                       # average overall mshr miss latency
system.l2.overall_avg_mshr_miss_latency::cpu.inst 84411.676647                       # average overall mshr miss latency
system.l2.overall_avg_mshr_miss_latency::cpu.data 91626.850465                       # average overall mshr miss latency
system.l2.overall_avg_mshr_miss_latency::total 91617.358922                       # average overall mshr miss latency
system.membus.snoop_filter.tot_requests       1506310                       # Total number of requests made to the snoop filter.
system.membus.snoop_filter.hit_single_requests       744621                       # Number of requests hitting in the snoop filter with a single holder of the requested data.
system.membus.snoop_filter.hit_multi_requests            0                       # Number of requests hitting in the snoop filter with multiple (>1) holders of the requested data.
system.membus.snoop_filter.tot_snoops               0                       # Total number of snoops made to the snoop filter.
system.membus.snoop_filter.hit_single_snoops            0                       # Number of snoops hitting in the snoop filter with a single holder of the requested data.
system.membus.snoop_filter.hit_multi_snoops            0                       # Number of snoops hitting in the snoop filter with multiple (>1) holders of the requested data.
system.membus.pwrStateResidencyTicks::UNDEFINED 1086763316500                       # Cumulative time (in ticks) in various power states
system.membus.trans_dist::ReadResp             447534                       # Transaction distribution
system.membus.trans_dist::WritebackDirty       398185                       # Transaction distribution
system.membus.trans_dist::CleanEvict           346436                       # Transaction distribution
system.membus.trans_dist::ReadExReq            314155                       # Transaction distribution
system.membus.trans_dist::ReadExResp           314155                       # Transaction distribution
system.membus.trans_dist::ReadSharedReq        447534                       # Transaction distribution
system.membus.pkt_count_system.l2.mem_side::system.mem_ctrls.port      2267999                       # Packet count per connected master and slave (bytes)
system.membus.pkt_count_system.l2.mem_side::total      2267999                       # Packet count per connected master and slave (bytes)
system.membus.pkt_count::total                2267999                       # Packet count per connected master and slave (bytes)
system.membus.pkt_size_system.l2.mem_side::system.mem_ctrls.port     74231936                       # Cumulative packet size per connected master and slave (bytes)
system.membus.pkt_size_system.l2.mem_side::total     74231936                       # Cumulative packet size per connected master and slave (bytes)
system.membus.pkt_size::total                74231936                       # Cumulative packet size per connected master and slave (bytes)
system.membus.snoops                                0                       # Total snoops (count)
system.membus.snoopTraffic                          0                       # Total snoop traffic (bytes)
system.membus.snoop_fanout::samples            761689                       # Request fanout histogram
system.membus.snoop_fanout::mean                    0                       # Request fanout histogram
system.membus.snoop_fanout::stdev                   0                       # Request fanout histogram
system.membus.snoop_fanout::underflows              0      0.00%      0.00% # Request fanout histogram
system.membus.snoop_fanout::0                  761689    100.00%    100.00% # Request fanout histogram
system.membus.snoop_fanout::1                       0      0.00%    100.00% # Request fanout histogram
system.membus.snoop_fanout::overflows               0      0.00%    100.00% # Request fanout histogram
system.membus.snoop_fanout::min_value               0                       # Request fanout histogram
system.membus.snoop_fanout::max_value               0                       # Request fanout histogram
system.membus.snoop_fanout::total              761689                       # Request fanout histogram
system.membus.reqLayer2.occupancy          3107168000                       # Layer occupancy (ticks)
system.membus.reqLayer2.utilization               0.3                       # Layer utilization (%)
system.membus.respLayer1.occupancy         4120874750                       # Layer occupancy (ticks)
system.membus.respLayer1.utilization              0.4                       # Layer utilization (%)
system.tol2bus.snoop_filter.tot_requests      5871331                       # Total number of requests made to the snoop filter.
system.tol2bus.snoop_filter.hit_single_requests      2934791                       # Number of requests hitting in the snoop filter with a single holder of the requested data.
system.tol2bus.snoop_filter.hit_multi_requests            1                       # Number of requests hitting in the snoop filter with multiple (>1) holders of the requested data.
system.tol2bus.snoop_filter.tot_snoops          90712                       # Total number of snoops made to the snoop filter.
system.tol2bus.snoop_filter.hit_single_snoops        90712                       # Number of snoops hitting in the snoop filter with a single holder of the requested data.
system.tol2bus.snoop_filter.hit_multi_snoops            0                       # Number of snoops hitting in the snoop filter with multiple (>1) holders of the requested data.
system.tol2bus.pwrStateResidencyTicks::UNDEFINED 1086763316500                       # Cumulative time (in ticks) in various power states
system.tol2bus.trans_dist::ReadResp           2218017                       # Transaction distribution
system.tol2bus.trans_dist::WritebackDirty      1858359                       # Transaction distribution
system.tol2bus.trans_dist::WritebackClean          300                       # Transaction distribution
system.tol2bus.trans_dist::CleanEvict         1868479                       # Transaction distribution
system.tol2bus.trans_dist::ReadExReq           718523                       # Transaction distribution
system.tol2bus.trans_dist::ReadExResp          718523                       # Transaction distribution
system.tol2bus.trans_dist::ReadCleanReq          1025                       # Transaction distribution
system.tol2bus.trans_dist::ReadSharedReq      2216992                       # Transaction distribution
system.tol2bus.pkt_count_system.cpu.icache.mem_side::system.l2.cpu_side         2350                       # Packet count per connected master and slave (bytes)
system.tol2bus.pkt_count_system.cpu.dcache.mem_side::system.l2.cpu_side      8805521                       # Packet count per connected master and slave (bytes)
system.tol2bus.pkt_count::total               8807871                       # Packet count per connected master and slave (bytes)
system.tol2bus.pkt_size_system.cpu.icache.mem_side::system.l2.cpu_side        84800                       # Cumulative packet size per connected master and slave (bytes)
system.tol2bus.pkt_size_system.cpu.dcache.mem_side::system.l2.cpu_side    281324096                       # Cumulative packet size per connected master and slave (bytes)
system.tol2bus.pkt_size::total              281408896                       # Cumulative packet size per connected master and slave (bytes)
system.tol2bus.snoops                          792347                       # Total snoops (count)
system.tol2bus.snoopTraffic                  25483840                       # Total snoop traffic (bytes)
system.tol2bus.snoop_fanout::samples          3728887                       # Request fanout histogram
system.tol2bus.snoop_fanout::mean            0.024327                       # Request fanout histogram
system.tol2bus.snoop_fanout::stdev           0.154063                       # Request fanout histogram
system.tol2bus.snoop_fanout::underflows             0      0.00%      0.00% # Request fanout histogram
system.tol2bus.snoop_fanout::0                3638174     97.57%     97.57% # Request fanout histogram
system.tol2bus.snoop_fanout::1                  90713      2.43%    100.00% # Request fanout histogram
system.tol2bus.snoop_fanout::2                      0      0.00%    100.00% # Request fanout histogram
system.tol2bus.snoop_fanout::3                      0      0.00%    100.00% # Request fanout histogram
system.tol2bus.snoop_fanout::4                      0      0.00%    100.00% # Request fanout histogram
system.tol2bus.snoop_fanout::overflows              0      0.00%    100.00% # Request fanout histogram
system.tol2bus.snoop_fanout::min_value              0                       # Request fanout histogram
system.tol2bus.snoop_fanout::max_value              1                       # Request fanout histogram
system.tol2bus.snoop_fanout::total            3728887                       # Request fanout histogram
system.tol2bus.reqLayer0.occupancy         4396139500                       # Layer occupancy (ticks)
system.tol2bus.reqLayer0.utilization              0.4                       # Layer utilization (%)
system.tol2bus.respLayer0.occupancy           1537500                       # Layer occupancy (ticks)
system.tol2bus.respLayer0.utilization             0.0                       # Layer utilization (%)
system.tol2bus.respLayer1.occupancy        4403272500                       # Layer occupancy (ticks)
system.tol2bus.respLayer1.utilization             0.4                       # Layer utilization (%)

---------- End Simulation Statistics   ----------
