
---------- Begin Simulation Statistics ----------
sim_seconds                                  1.098683                       # Number of seconds simulated
sim_ticks                                1098683383500                       # Number of ticks simulated
final_tick                               1098683383500                       # Number of ticks from beginning of simulation (restored from checkpoints and never reset)
sim_freq                                 1000000000000                       # Frequency of simulated ticks
host_inst_rate                                 464754                       # Simulator instruction rate (inst/s)
host_op_rate                                   678960                       # Simulator op (including micro ops) rate (op/s)
host_tick_rate                             1021236003                       # Simulator tick rate (ticks/s)
host_mem_usage                                 658400                       # Number of bytes of host memory used
host_seconds                                  1075.84                       # Real time elapsed on the host
sim_insts                                   500000001                       # Number of instructions simulated
sim_ops                                     730450447                       # Number of ops (including micro ops) simulated
system.voltage_domain.voltage                       1                       # Voltage in Volts
system.clk_domain.clock                          1000                       # Clock period in ticks
system.mem_ctrls.pwrStateResidencyTicks::UNDEFINED 1098683383500                       # Cumulative time (in ticks) in various power states
system.mem_ctrls.bytes_read::cpu.inst           58016                       # Number of bytes read from this memory
system.mem_ctrls.bytes_read::cpu.data        31513120                       # Number of bytes read from this memory
system.mem_ctrls.bytes_read::total           31571136                       # Number of bytes read from this memory
system.mem_ctrls.bytes_inst_read::cpu.inst        58016                       # Number of instructions bytes read from this memory
system.mem_ctrls.bytes_inst_read::total         58016                       # Number of instructions bytes read from this memory
system.mem_ctrls.bytes_written::writebacks     17912352                       # Number of bytes written to this memory
system.mem_ctrls.bytes_written::total        17912352                       # Number of bytes written to this memory
system.mem_ctrls.num_reads::cpu.inst             1813                       # Number of read requests responded to by this memory
system.mem_ctrls.num_reads::cpu.data           984785                       # Number of read requests responded to by this memory
system.mem_ctrls.num_reads::total              986598                       # Number of read requests responded to by this memory
system.mem_ctrls.num_writes::writebacks        559761                       # Number of write requests responded to by this memory
system.mem_ctrls.num_writes::total             559761                       # Number of write requests responded to by this memory
system.mem_ctrls.bw_read::cpu.inst              52805                       # Total read bandwidth from this memory (bytes/s)
system.mem_ctrls.bw_read::cpu.data           28682622                       # Total read bandwidth from this memory (bytes/s)
system.mem_ctrls.bw_read::total              28735427                       # Total read bandwidth from this memory (bytes/s)
system.mem_ctrls.bw_inst_read::cpu.inst         52805                       # Instruction read bandwidth from this memory (bytes/s)
system.mem_ctrls.bw_inst_read::total            52805                       # Instruction read bandwidth from this memory (bytes/s)
system.mem_ctrls.bw_write::writebacks        16303470                       # Write bandwidth from this memory (bytes/s)
system.mem_ctrls.bw_write::total             16303470                       # Write bandwidth from this memory (bytes/s)
system.mem_ctrls.bw_total::writebacks        16303470                       # Total bandwidth to/from this memory (bytes/s)
system.mem_ctrls.bw_total::cpu.inst             52805                       # Total bandwidth to/from this memory (bytes/s)
system.mem_ctrls.bw_total::cpu.data          28682622                       # Total bandwidth to/from this memory (bytes/s)
system.mem_ctrls.bw_total::total             45038897                       # Total bandwidth to/from this memory (bytes/s)
system.mem_ctrls.readReqs                      986598                       # Number of read requests accepted
system.mem_ctrls.writeReqs                     559761                       # Number of write requests accepted
system.mem_ctrls.readBursts                    986598                       # Number of DRAM read bursts, including those serviced by the write queue
system.mem_ctrls.writeBursts                   559761                       # Number of DRAM write bursts, including those merged in the write queue
system.mem_ctrls.bytesReadDRAM               63116928                       # Total number of bytes read from DRAM
system.mem_ctrls.bytesReadWrQ                   25344                       # Total number of bytes read from write queue
system.mem_ctrls.bytesWritten                31644864                       # Total number of bytes written to DRAM
system.mem_ctrls.bytesReadSys                31571136                       # Total read bytes from the system interface side
system.mem_ctrls.bytesWrittenSys             17912352                       # Total written bytes from the system interface side
system.mem_ctrls.servicedByWrQ                    396                       # Number of DRAM read bursts serviced by the write queue
system.mem_ctrls.mergedWrBursts                 65282                       # Number of DRAM write bursts merged with an existing one
system.mem_ctrls.neitherReadNorWriteReqs            0                       # Number of requests that are neither read nor write
system.mem_ctrls.perBankRdBursts::0             64471                       # Per bank write bursts
system.mem_ctrls.perBankRdBursts::1             62491                       # Per bank write bursts
system.mem_ctrls.perBankRdBursts::2             61032                       # Per bank write bursts
system.mem_ctrls.perBankRdBursts::3             60466                       # Per bank write bursts
system.mem_ctrls.perBankRdBursts::4             59664                       # Per bank write bursts
system.mem_ctrls.perBankRdBursts::5             60158                       # Per bank write bursts
system.mem_ctrls.perBankRdBursts::6             62128                       # Per bank write bursts
system.mem_ctrls.perBankRdBursts::7             61189                       # Per bank write bursts
system.mem_ctrls.perBankRdBursts::8             58803                       # Per bank write bursts
system.mem_ctrls.perBankRdBursts::9             57852                       # Per bank write bursts
system.mem_ctrls.perBankRdBursts::10            61083                       # Per bank write bursts
system.mem_ctrls.perBankRdBursts::11            62664                       # Per bank write bursts
system.mem_ctrls.perBankRdBursts::12            63512                       # Per bank write bursts
system.mem_ctrls.perBankRdBursts::13            62868                       # Per bank write bursts
system.mem_ctrls.perBankRdBursts::14            63689                       # Per bank write bursts
system.mem_ctrls.perBankRdBursts::15            64132                       # Per bank write bursts
system.mem_ctrls.perBankWrBursts::0             32318                       # Per bank write bursts
system.mem_ctrls.perBankWrBursts::1             31255                       # Per bank write bursts
system.mem_ctrls.perBankWrBursts::2             30302                       # Per bank write bursts
system.mem_ctrls.perBankWrBursts::3             29964                       # Per bank write bursts
system.mem_ctrls.perBankWrBursts::4             29389                       # Per bank write bursts
system.mem_ctrls.perBankWrBursts::5             29262                       # Per bank write bursts
system.mem_ctrls.perBankWrBursts::6             30117                       # Per bank write bursts
system.mem_ctrls.perBankWrBursts::7             30279                       # Per bank write bursts
system.mem_ctrls.perBankWrBursts::8             30363                       # Per bank write bursts
system.mem_ctrls.perBankWrBursts::9             30202                       # Per bank write bursts
system.mem_ctrls.perBankWrBursts::10            31080                       # Per bank write bursts
system.mem_ctrls.perBankWrBursts::11            31328                       # Per bank write bursts
system.mem_ctrls.perBankWrBursts::12            31745                       # Per bank write bursts
system.mem_ctrls.perBankWrBursts::13            32103                       # Per bank write bursts
system.mem_ctrls.perBankWrBursts::14            32462                       # Per bank write bursts
system.mem_ctrls.perBankWrBursts::15            32282                       # Per bank write bursts
system.mem_ctrls.numRdRetry                         0                       # Number of times read queue was full causing retry
system.mem_ctrls.numWrRetry                         0                       # Number of times write queue was full causing retry
system.mem_ctrls.totGap                  1098680138500                       # Total gap between requests
system.mem_ctrls.readPktSize::0                     0                       # Read request sizes (log2)
system.mem_ctrls.readPktSize::1                     0                       # Read request sizes (log2)
system.mem_ctrls.readPktSize::2                     0                       # Read request sizes (log2)
system.mem_ctrls.readPktSize::3                     0                       # Read request sizes (log2)
system.mem_ctrls.readPktSize::4                     0                       # Read request sizes (log2)
system.mem_ctrls.readPktSize::5                986598                       # Read request sizes (log2)
system.mem_ctrls.readPktSize::6                     0                       # Read request sizes (log2)
system.mem_ctrls.writePktSize::0                    0                       # Write request sizes (log2)
system.mem_ctrls.writePktSize::1                    0                       # Write request sizes (log2)
system.mem_ctrls.writePktSize::2                    0                       # Write request sizes (log2)
system.mem_ctrls.writePktSize::3                    0                       # Write request sizes (log2)
system.mem_ctrls.writePktSize::4                    0                       # Write request sizes (log2)
system.mem_ctrls.writePktSize::5               559761                       # Write request sizes (log2)
system.mem_ctrls.writePktSize::6                    0                       # Write request sizes (log2)
system.mem_ctrls.rdQLenPdf::0                  969745                       # What read queue length does an incoming req see
system.mem_ctrls.rdQLenPdf::1                    8178                       # What read queue length does an incoming req see
system.mem_ctrls.rdQLenPdf::2                    8265                       # What read queue length does an incoming req see
system.mem_ctrls.rdQLenPdf::3                      14                       # What read queue length does an incoming req see
system.mem_ctrls.rdQLenPdf::4                       0                       # What read queue length does an incoming req see
system.mem_ctrls.rdQLenPdf::5                       0                       # What read queue length does an incoming req see
system.mem_ctrls.rdQLenPdf::6                       0                       # What read queue length does an incoming req see
system.mem_ctrls.rdQLenPdf::7                       0                       # What read queue length does an incoming req see
system.mem_ctrls.rdQLenPdf::8                       0                       # What read queue length does an incoming req see
system.mem_ctrls.rdQLenPdf::9                       0                       # What read queue length does an incoming req see
system.mem_ctrls.rdQLenPdf::10                      0                       # What read queue length does an incoming req see
system.mem_ctrls.rdQLenPdf::11                      0                       # What read queue length does an incoming req see
system.mem_ctrls.rdQLenPdf::12                      0                       # What read queue length does an incoming req see
system.mem_ctrls.rdQLenPdf::13                      0                       # What read queue length does an incoming req see
system.mem_ctrls.rdQLenPdf::14                      0                       # What read queue length does an incoming req see
system.mem_ctrls.rdQLenPdf::15                      0                       # What read queue length does an incoming req see
system.mem_ctrls.rdQLenPdf::16                      0                       # What read queue length does an incoming req see
system.mem_ctrls.rdQLenPdf::17                      0                       # What read queue length does an incoming req see
system.mem_ctrls.rdQLenPdf::18                      0                       # What read queue length does an incoming req see
system.mem_ctrls.rdQLenPdf::19                      0                       # What read queue length does an incoming req see
system.mem_ctrls.rdQLenPdf::20                      0                       # What read queue length does an incoming req see
system.mem_ctrls.rdQLenPdf::21                      0                       # What read queue length does an incoming req see
system.mem_ctrls.rdQLenPdf::22                      0                       # What read queue length does an incoming req see
system.mem_ctrls.rdQLenPdf::23                      0                       # What read queue length does an incoming req see
system.mem_ctrls.rdQLenPdf::24                      0                       # What read queue length does an incoming req see
system.mem_ctrls.rdQLenPdf::25                      0                       # What read queue length does an incoming req see
system.mem_ctrls.rdQLenPdf::26                      0                       # What read queue length does an incoming req see
system.mem_ctrls.rdQLenPdf::27                      0                       # What read queue length does an incoming req see
system.mem_ctrls.rdQLenPdf::28                      0                       # What read queue length does an incoming req see
system.mem_ctrls.rdQLenPdf::29                      0                       # What read queue length does an incoming req see
system.mem_ctrls.rdQLenPdf::30                      0                       # What read queue length does an incoming req see
system.mem_ctrls.rdQLenPdf::31                      0                       # What read queue length does an incoming req see
system.mem_ctrls.wrQLenPdf::0                       1                       # What write queue length does an incoming req see
system.mem_ctrls.wrQLenPdf::1                       1                       # What write queue length does an incoming req see
system.mem_ctrls.wrQLenPdf::2                       1                       # What write queue length does an incoming req see
system.mem_ctrls.wrQLenPdf::3                       1                       # What write queue length does an incoming req see
system.mem_ctrls.wrQLenPdf::4                       1                       # What write queue length does an incoming req see
system.mem_ctrls.wrQLenPdf::5                       1                       # What write queue length does an incoming req see
system.mem_ctrls.wrQLenPdf::6                       1                       # What write queue length does an incoming req see
system.mem_ctrls.wrQLenPdf::7                       1                       # What write queue length does an incoming req see
system.mem_ctrls.wrQLenPdf::8                       1                       # What write queue length does an incoming req see
system.mem_ctrls.wrQLenPdf::9                       1                       # What write queue length does an incoming req see
system.mem_ctrls.wrQLenPdf::10                      1                       # What write queue length does an incoming req see
system.mem_ctrls.wrQLenPdf::11                      1                       # What write queue length does an incoming req see
system.mem_ctrls.wrQLenPdf::12                      1                       # What write queue length does an incoming req see
system.mem_ctrls.wrQLenPdf::13                      1                       # What write queue length does an incoming req see
system.mem_ctrls.wrQLenPdf::14                      1                       # What write queue length does an incoming req see
system.mem_ctrls.wrQLenPdf::15                  16233                       # What write queue length does an incoming req see
system.mem_ctrls.wrQLenPdf::16                  17476                       # What write queue length does an incoming req see
system.mem_ctrls.wrQLenPdf::17                  28802                       # What write queue length does an incoming req see
system.mem_ctrls.wrQLenPdf::18                  28796                       # What write queue length does an incoming req see
system.mem_ctrls.wrQLenPdf::19                  28797                       # What write queue length does an incoming req see
system.mem_ctrls.wrQLenPdf::20                  28796                       # What write queue length does an incoming req see
system.mem_ctrls.wrQLenPdf::21                  28796                       # What write queue length does an incoming req see
system.mem_ctrls.wrQLenPdf::22                  28796                       # What write queue length does an incoming req see
system.mem_ctrls.wrQLenPdf::23                  28796                       # What write queue length does an incoming req see
system.mem_ctrls.wrQLenPdf::24                  28796                       # What write queue length does an incoming req see
system.mem_ctrls.wrQLenPdf::25                  28800                       # What write queue length does an incoming req see
system.mem_ctrls.wrQLenPdf::26                  28796                       # What write queue length does an incoming req see
system.mem_ctrls.wrQLenPdf::27                  28796                       # What write queue length does an incoming req see
system.mem_ctrls.wrQLenPdf::28                  28796                       # What write queue length does an incoming req see
system.mem_ctrls.wrQLenPdf::29                  28801                       # What write queue length does an incoming req see
system.mem_ctrls.wrQLenPdf::30                  28800                       # What write queue length does an incoming req see
system.mem_ctrls.wrQLenPdf::31                  28795                       # What write queue length does an incoming req see
system.mem_ctrls.wrQLenPdf::32                  28796                       # What write queue length does an incoming req see
system.mem_ctrls.wrQLenPdf::33                      0                       # What write queue length does an incoming req see
system.mem_ctrls.wrQLenPdf::34                      0                       # What write queue length does an incoming req see
system.mem_ctrls.wrQLenPdf::35                      0                       # What write queue length does an incoming req see
system.mem_ctrls.wrQLenPdf::36                      0                       # What write queue length does an incoming req see
system.mem_ctrls.wrQLenPdf::37                      0                       # What write queue length does an incoming req see
system.mem_ctrls.wrQLenPdf::38                      0                       # What write queue length does an incoming req see
system.mem_ctrls.wrQLenPdf::39                      0                       # What write queue length does an incoming req see
system.mem_ctrls.wrQLenPdf::40                      0                       # What write queue length does an incoming req see
system.mem_ctrls.wrQLenPdf::41                      0                       # What write queue length does an incoming req see
system.mem_ctrls.wrQLenPdf::42                      0                       # What write queue length does an incoming req see
system.mem_ctrls.wrQLenPdf::43                      0                       # What write queue length does an incoming req see
system.mem_ctrls.wrQLenPdf::44                      0                       # What write queue length does an incoming req see
system.mem_ctrls.wrQLenPdf::45                      0                       # What write queue length does an incoming req see
system.mem_ctrls.wrQLenPdf::46                      0                       # What write queue length does an incoming req see
system.mem_ctrls.wrQLenPdf::47                      0                       # What write queue length does an incoming req see
system.mem_ctrls.wrQLenPdf::48                      0                       # What write queue length does an incoming req see
system.mem_ctrls.wrQLenPdf::49                      0                       # What write queue length does an incoming req see
system.mem_ctrls.wrQLenPdf::50                      0                       # What write queue length does an incoming req see
system.mem_ctrls.wrQLenPdf::51                      0                       # What write queue length does an incoming req see
system.mem_ctrls.wrQLenPdf::52                      0                       # What write queue length does an incoming req see
system.mem_ctrls.wrQLenPdf::53                      0                       # What write queue length does an incoming req see
system.mem_ctrls.wrQLenPdf::54                      0                       # What write queue length does an incoming req see
system.mem_ctrls.wrQLenPdf::55                      0                       # What write queue length does an incoming req see
system.mem_ctrls.wrQLenPdf::56                      0                       # What write queue length does an incoming req see
system.mem_ctrls.wrQLenPdf::57                      0                       # What write queue length does an incoming req see
system.mem_ctrls.wrQLenPdf::58                      0                       # What write queue length does an incoming req see
system.mem_ctrls.wrQLenPdf::59                      0                       # What write queue length does an incoming req see
system.mem_ctrls.wrQLenPdf::60                      0                       # What write queue length does an incoming req see
system.mem_ctrls.wrQLenPdf::61                      0                       # What write queue length does an incoming req see
system.mem_ctrls.wrQLenPdf::62                      0                       # What write queue length does an incoming req see
system.mem_ctrls.wrQLenPdf::63                      0                       # What write queue length does an incoming req see
system.mem_ctrls.bytesPerActivate::samples       750395                       # Bytes accessed per row activation
system.mem_ctrls.bytesPerActivate::mean    126.282462                       # Bytes accessed per row activation
system.mem_ctrls.bytesPerActivate::gmean    91.273583                       # Bytes accessed per row activation
system.mem_ctrls.bytesPerActivate::stdev   161.765338                       # Bytes accessed per row activation
system.mem_ctrls.bytesPerActivate::0-127       531231     70.79%     70.79% # Bytes accessed per row activation
system.mem_ctrls.bytesPerActivate::128-255       140460     18.72%     89.51% # Bytes accessed per row activation
system.mem_ctrls.bytesPerActivate::256-383        30030      4.00%     93.51% # Bytes accessed per row activation
system.mem_ctrls.bytesPerActivate::384-511        11968      1.59%     95.11% # Bytes accessed per row activation
system.mem_ctrls.bytesPerActivate::512-639        16478      2.20%     97.30% # Bytes accessed per row activation
system.mem_ctrls.bytesPerActivate::640-767         4903      0.65%     97.96% # Bytes accessed per row activation
system.mem_ctrls.bytesPerActivate::768-895         1607      0.21%     98.17% # Bytes accessed per row activation
system.mem_ctrls.bytesPerActivate::896-1023         1102      0.15%     98.32% # Bytes accessed per row activation
system.mem_ctrls.bytesPerActivate::1024-1151        12616      1.68%    100.00% # Bytes accessed per row activation
system.mem_ctrls.bytesPerActivate::total       750395                       # Bytes accessed per row activation
system.mem_ctrls.rdPerTurnAround::samples        28795                       # Reads before turning the bus around for writes
system.mem_ctrls.rdPerTurnAround::mean      33.969509                       # Reads before turning the bus around for writes
system.mem_ctrls.rdPerTurnAround::gmean     26.514656                       # Reads before turning the bus around for writes
system.mem_ctrls.rdPerTurnAround::stdev    279.258783                       # Reads before turning the bus around for writes
system.mem_ctrls.rdPerTurnAround::0-2047        28782     99.95%     99.95% # Reads before turning the bus around for writes
system.mem_ctrls.rdPerTurnAround::2048-4095            5      0.02%     99.97% # Reads before turning the bus around for writes
system.mem_ctrls.rdPerTurnAround::4096-6143            4      0.01%     99.99% # Reads before turning the bus around for writes
system.mem_ctrls.rdPerTurnAround::6144-8191            1      0.00%     99.99% # Reads before turning the bus around for writes
system.mem_ctrls.rdPerTurnAround::8192-10239            1      0.00%     99.99% # Reads before turning the bus around for writes
system.mem_ctrls.rdPerTurnAround::10240-12287            1      0.00%    100.00% # Reads before turning the bus around for writes
system.mem_ctrls.rdPerTurnAround::40960-43007            1      0.00%    100.00% # Reads before turning the bus around for writes
system.mem_ctrls.rdPerTurnAround::total         28795                       # Reads before turning the bus around for writes
system.mem_ctrls.wrPerTurnAround::samples        28795                       # Writes before turning the bus around for reads
system.mem_ctrls.wrPerTurnAround::mean      17.171419                       # Writes before turning the bus around for reads
system.mem_ctrls.wrPerTurnAround::gmean     17.143979                       # Writes before turning the bus around for reads
system.mem_ctrls.wrPerTurnAround::stdev      0.964067                       # Writes before turning the bus around for reads
system.mem_ctrls.wrPerTurnAround::16            11316     39.30%     39.30% # Writes before turning the bus around for reads
system.mem_ctrls.wrPerTurnAround::17             1247      4.33%     43.63% # Writes before turning the bus around for reads
system.mem_ctrls.wrPerTurnAround::18            16212     56.30%     99.93% # Writes before turning the bus around for reads
system.mem_ctrls.wrPerTurnAround::19               20      0.07%    100.00% # Writes before turning the bus around for reads
system.mem_ctrls.wrPerTurnAround::total         28795                       # Writes before turning the bus around for reads
system.mem_ctrls.totQLat                  26065073750                       # Total ticks spent queuing
system.mem_ctrls.totMemAccLat             44556361250                       # Total ticks spent from burst creation until serviced by the DRAM
system.mem_ctrls.totBusLat                 4931010000                       # Total ticks spent in databus transfers
system.mem_ctrls.avgQLat                     26429.75                       # Average queueing delay per DRAM burst
system.mem_ctrls.avgBusLat                    5000.00                       # Average bus latency per DRAM burst
system.mem_ctrls.avgMemAccLat                45179.75                       # Average memory access latency per DRAM burst
system.mem_ctrls.avgRdBW                        57.45                       # Average DRAM read bandwidth in MiByte/s
system.mem_ctrls.avgWrBW                        28.80                       # Average achieved write bandwidth in MiByte/s
system.mem_ctrls.avgRdBWSys                     28.74                       # Average system read bandwidth in MiByte/s
system.mem_ctrls.avgWrBWSys                     16.30                       # Average system write bandwidth in MiByte/s
system.mem_ctrls.peakBW                      12800.00                       # Theoretical peak bandwidth in MiByte/s
system.mem_ctrls.busUtil                         0.67                       # Data bus utilization in percentage
system.mem_ctrls.busUtilRead                     0.45                       # Data bus utilization in percentage for reads
system.mem_ctrls.busUtilWrite                    0.23                       # Data bus utilization in percentage for writes
system.mem_ctrls.avgRdQLen                       1.00                       # Average read queue length when enqueuing
system.mem_ctrls.avgWrQLen                      24.78                       # Average write queue length when enqueuing
system.mem_ctrls.readRowHits                   530465                       # Number of row buffer hits during reads
system.mem_ctrls.writeRowHits                  199792                       # Number of row buffer hits during writes
system.mem_ctrls.readRowHitRate                 53.79                       # Row buffer hit rate for reads
system.mem_ctrls.writeRowHitRate                40.40                       # Row buffer hit rate for writes
system.mem_ctrls.avgGap                     710494.87                       # Average gap between requests
system.mem_ctrls.pageHitRate                    49.32                       # Row buffer hit rate, read and write combined
system.mem_ctrls_0.actEnergy               2651531820                       # Energy for activate commands per rank (pJ)
system.mem_ctrls_0.preEnergy               1409318790                       # Energy for precharge commands per rank (pJ)
system.mem_ctrls_0.readEnergy              3510016860                       # Energy for read commands per rank (pJ)
system.mem_ctrls_0.writeEnergy             1267864920                       # Energy for write commands per rank (pJ)
system.mem_ctrls_0.refreshEnergy         42581644560.000008                       # Energy for refresh commands per rank (pJ)
system.mem_ctrls_0.actBackEnergy          24743826540                       # Energy for active background per rank (pJ)
system.mem_ctrls_0.preBackEnergy           1590177120                       # Energy for precharge background per rank (pJ)
system.mem_ctrls_0.actPowerDownEnergy    144830543040                       # Energy for active power-down per rank (pJ)
system.mem_ctrls_0.prePowerDownEnergy     43096420800                       # Energy for precharge power-down per rank (pJ)
system.mem_ctrls_0.selfRefreshEnergy     150405561825                       # Energy for self refresh per rank (pJ)
system.mem_ctrls_0.totalEnergy           416094371865                       # Total energy per rank (pJ)
system.mem_ctrls_0.averagePower            378.720910                       # Core power per rank (mW)
system.mem_ctrls_0.totalIdleTime         1040260358250                       # Total Idle time Per DRAM Rank
system.mem_ctrls_0.memoryStateTime::IDLE   2233075500                       # Time in different power states
system.mem_ctrls_0.memoryStateTime::REF   18055956000                       # Time in different power states
system.mem_ctrls_0.memoryStateTime::SREF 610421820500                       # Time in different power states
system.mem_ctrls_0.memoryStateTime::PRE_PDN 112230942500                       # Time in different power states
system.mem_ctrls_0.memoryStateTime::ACT   38131322750                       # Time in different power states
system.mem_ctrls_0.memoryStateTime::ACT_PDN 317610266250                       # Time in different power states
system.mem_ctrls_1.actEnergy               2706295620                       # Energy for activate commands per rank (pJ)
system.mem_ctrls_1.preEnergy               1438430235                       # Energy for precharge commands per rank (pJ)
system.mem_ctrls_1.readEnergy              3531465420                       # Energy for read commands per rank (pJ)
system.mem_ctrls_1.writeEnergy             1313169300                       # Energy for write commands per rank (pJ)
system.mem_ctrls_1.refreshEnergy         42401555040.000008                       # Energy for refresh commands per rank (pJ)
system.mem_ctrls_1.actBackEnergy          25061019000                       # Energy for active background per rank (pJ)
system.mem_ctrls_1.preBackEnergy           1596984000                       # Energy for precharge background per rank (pJ)
system.mem_ctrls_1.actPowerDownEnergy    143288017590                       # Energy for active power-down per rank (pJ)
system.mem_ctrls_1.prePowerDownEnergy     43347578880                       # Energy for precharge power-down per rank (pJ)
system.mem_ctrls_1.selfRefreshEnergy     150869430105                       # Energy for self refresh per rank (pJ)
system.mem_ctrls_1.totalEnergy           415564468920                       # Total energy per rank (pJ)
system.mem_ctrls_1.averagePower            378.238601                       # Core power per rank (mW)
system.mem_ctrls_1.totalIdleTime         1039504308250                       # Total Idle time Per DRAM Rank
system.mem_ctrls_1.memoryStateTime::IDLE   2244479750                       # Time in different power states
system.mem_ctrls_1.memoryStateTime::REF   17979446000                       # Time in different power states
system.mem_ctrls_1.memoryStateTime::SREF 612430379750                       # Time in different power states
system.mem_ctrls_1.memoryStateTime::PRE_PDN 112885059500                       # Time in different power states
system.mem_ctrls_1.memoryStateTime::ACT   38916934500                       # Time in different power states
system.mem_ctrls_1.memoryStateTime::ACT_PDN 314227084000                       # Time in different power states
system.pwrStateResidencyTicks::UNDEFINED 1098683383500                       # Cumulative time (in ticks) in various power states
system.cpu_voltage_domain.voltage                   1                       # Voltage in Volts
system.cpu_clk_domain.clock                       500                       # Clock period in ticks
system.cpu.dtb.walker.pwrStateResidencyTicks::UNDEFINED 1098683383500                       # Cumulative time (in ticks) in various power states
system.cpu.apic_clk_domain.clock                 8000                       # Clock period in ticks
system.cpu.interrupts.pwrStateResidencyTicks::UNDEFINED 1098683383500                       # Cumulative time (in ticks) in various power states
system.cpu.itb.walker.pwrStateResidencyTicks::UNDEFINED 1098683383500                       # Cumulative time (in ticks) in various power states
system.cpu.workload.num_syscalls                   86                       # Number of system calls
system.cpu.pwrStateResidencyTicks::ON    1098683383500                       # Cumulative time (in ticks) in various power states
system.cpu.numCycles                       2197366767                       # number of cpu cycles simulated
system.cpu.numWorkItemsStarted                      0                       # number of work items this cpu started
system.cpu.numWorkItemsCompleted                    0                       # number of work items this cpu completed
system.cpu.committedInsts                   500000001                       # Number of instructions committed
system.cpu.committedOps                     730450447                       # Number of ops (including micro ops) committed
system.cpu.num_int_alu_accesses             729688906                       # Number of integer alu accesses
system.cpu.num_fp_alu_accesses                    663                       # Number of float alu accesses
system.cpu.num_func_calls                     1453961                       # number of times a function call or return occured
system.cpu.num_conditional_control_insts     31770496                       # number of instructions that are conditional controls
system.cpu.num_int_insts                    729688906                       # number of integer instructions
system.cpu.num_fp_insts                           663                       # number of float instructions
system.cpu.num_int_register_reads          1698743411                       # number of times the integer registers were read
system.cpu.num_int_register_writes          621892950                       # number of times the integer registers were written
system.cpu.num_fp_register_reads                 1009                       # number of times the floating registers were read
system.cpu.num_fp_register_writes                 429                       # number of times the floating registers were written
system.cpu.num_cc_register_reads            180840559                       # number of times the CC registers were read
system.cpu.num_cc_register_writes           276245121                       # number of times the CC registers were written
system.cpu.num_mem_refs                     295985461                       # number of memory refs
system.cpu.num_load_insts                   225946751                       # Number of load instructions
system.cpu.num_store_insts                   70038710                       # Number of store instructions
system.cpu.num_idle_cycles                          0                       # Number of idle cycles
system.cpu.num_busy_cycles                 2197366767                       # Number of busy cycles
system.cpu.not_idle_fraction                        1                       # Percentage of non-idle cycles
system.cpu.idle_fraction                            0                       # Percentage of idle cycles
system.cpu.Branches                          37843296                       # Number of branches fetched
system.cpu.op_class::No_OpClass                 94740      0.01%      0.01% # Class of executed instruction
system.cpu.op_class::IntAlu                 434349067     59.46%     59.48% # Class of executed instruction
system.cpu.op_class::IntMult                    20662      0.00%     59.48% # Class of executed instruction
system.cpu.op_class::IntDiv                       119      0.00%     59.48% # Class of executed instruction
system.cpu.op_class::FloatAdd                     398      0.00%     59.48% # Class of executed instruction
system.cpu.op_class::FloatCmp                       0      0.00%     59.48% # Class of executed instruction
system.cpu.op_class::FloatCvt                       0      0.00%     59.48% # Class of executed instruction
system.cpu.op_class::FloatMult                      0      0.00%     59.48% # Class of executed instruction
system.cpu.op_class::FloatDiv                       0      0.00%     59.48% # Class of executed instruction
system.cpu.op_class::FloatSqrt                      0      0.00%     59.48% # Class of executed instruction
system.cpu.op_class::SimdAdd                        0      0.00%     59.48% # Class of executed instruction
system.cpu.op_class::SimdAddAcc                     0      0.00%     59.48% # Class of executed instruction
system.cpu.op_class::SimdAlu                        0      0.00%     59.48% # Class of executed instruction
system.cpu.op_class::SimdCmp                        0      0.00%     59.48% # Class of executed instruction
system.cpu.op_class::SimdCvt                        0      0.00%     59.48% # Class of executed instruction
system.cpu.op_class::SimdMisc                       0      0.00%     59.48% # Class of executed instruction
system.cpu.op_class::SimdMult                       0      0.00%     59.48% # Class of executed instruction
system.cpu.op_class::SimdMultAcc                    0      0.00%     59.48% # Class of executed instruction
system.cpu.op_class::SimdShift                      0      0.00%     59.48% # Class of executed instruction
system.cpu.op_class::SimdShiftAcc                   0      0.00%     59.48% # Class of executed instruction
system.cpu.op_class::SimdSqrt                       0      0.00%     59.48% # Class of executed instruction
system.cpu.op_class::SimdFloatAdd                   0      0.00%     59.48% # Class of executed instruction
system.cpu.op_class::SimdFloatAlu                   0      0.00%     59.48% # Class of executed instruction
system.cpu.op_class::SimdFloatCmp                   0      0.00%     59.48% # Class of executed instruction
system.cpu.op_class::SimdFloatCvt                   0      0.00%     59.48% # Class of executed instruction
system.cpu.op_class::SimdFloatDiv                   0      0.00%     59.48% # Class of executed instruction
system.cpu.op_class::SimdFloatMisc                  0      0.00%     59.48% # Class of executed instruction
system.cpu.op_class::SimdFloatMult                  0      0.00%     59.48% # Class of executed instruction
system.cpu.op_class::SimdFloatMultAcc               0      0.00%     59.48% # Class of executed instruction
system.cpu.op_class::SimdFloatSqrt                  0      0.00%     59.48% # Class of executed instruction
system.cpu.op_class::MemRead                225946751     30.93%     90.41% # Class of executed instruction
system.cpu.op_class::MemWrite                70038710      9.59%    100.00% # Class of executed instruction
system.cpu.op_class::IprAccess                      0      0.00%    100.00% # Class of executed instruction
system.cpu.op_class::InstPrefetch                   0      0.00%    100.00% # Class of executed instruction
system.cpu.op_class::total                  730450447                       # Class of executed instruction
system.cpu.dcache.tags.pwrStateResidencyTicks::UNDEFINED 1098683383500                       # Cumulative time (in ticks) in various power states
system.cpu.dcache.tags.replacements           2684590                       # number of replacements
system.cpu.dcache.tags.tagsinuse          2042.162639                       # Cycle average of tags in use
system.cpu.dcache.tags.total_refs           293298836                       # Total number of references to valid blocks.
system.cpu.dcache.tags.sampled_refs           2686638                       # Sample count of references to valid blocks.
system.cpu.dcache.tags.avg_refs            109.169466                       # Average number of references to valid blocks.
system.cpu.dcache.tags.warmup_cycle        3852955500                       # Cycle when the warmup percentage was hit.
system.cpu.dcache.tags.occ_blocks::cpu.data  2042.162639                       # Average occupied blocks per requestor
system.cpu.dcache.tags.occ_percent::cpu.data     0.997150                       # Average percentage of cache occupancy
system.cpu.dcache.tags.occ_percent::total     0.997150                       # Average percentage of cache occupancy
system.cpu.dcache.tags.occ_task_id_blocks::1024         2048                       # Occupied blocks per task id
system.cpu.dcache.tags.age_task_id_blocks_1024::0            1                       # Occupied blocks per task id
system.cpu.dcache.tags.age_task_id_blocks_1024::1            3                       # Occupied blocks per task id
system.cpu.dcache.tags.age_task_id_blocks_1024::2           32                       # Occupied blocks per task id
system.cpu.dcache.tags.age_task_id_blocks_1024::3         1769                       # Occupied blocks per task id
system.cpu.dcache.tags.age_task_id_blocks_1024::4          243                       # Occupied blocks per task id
system.cpu.dcache.tags.occ_task_id_percent::1024            1                       # Percentage of cache occupancy per task id
system.cpu.dcache.tags.tag_accesses        1186628534                       # Number of tag accesses
system.cpu.dcache.tags.data_accesses       1186628534                       # Number of data accesses
system.cpu.dcache.pwrStateResidencyTicks::UNDEFINED 1098683383500                       # Cumulative time (in ticks) in various power states
system.cpu.dcache.ReadReq_hits::cpu.data    224004516                       # number of ReadReq hits
system.cpu.dcache.ReadReq_hits::total       224004516                       # number of ReadReq hits
system.cpu.dcache.WriteReq_hits::cpu.data     69294320                       # number of WriteReq hits
system.cpu.dcache.WriteReq_hits::total       69294320                       # number of WriteReq hits
system.cpu.dcache.demand_hits::cpu.data     293298836                       # number of demand (read+write) hits
system.cpu.dcache.demand_hits::total        293298836                       # number of demand (read+write) hits
system.cpu.dcache.overall_hits::cpu.data    293298836                       # number of overall hits
system.cpu.dcache.overall_hits::total       293298836                       # number of overall hits
system.cpu.dcache.ReadReq_misses::cpu.data      1925862                       # number of ReadReq misses
system.cpu.dcache.ReadReq_misses::total       1925862                       # number of ReadReq misses
system.cpu.dcache.WriteReq_misses::cpu.data       744392                       # number of WriteReq misses
system.cpu.dcache.WriteReq_misses::total       744392                       # number of WriteReq misses
system.cpu.dcache.SoftPFReq_misses::cpu.data        16384                       # number of SoftPFReq misses
system.cpu.dcache.SoftPFReq_misses::total        16384                       # number of SoftPFReq misses
system.cpu.dcache.demand_misses::cpu.data      2670254                       # number of demand (read+write) misses
system.cpu.dcache.demand_misses::total        2670254                       # number of demand (read+write) misses
system.cpu.dcache.overall_misses::cpu.data      2686638                       # number of overall misses
system.cpu.dcache.overall_misses::total       2686638                       # number of overall misses
system.cpu.dcache.ReadReq_miss_latency::cpu.data  68575678000                       # number of ReadReq miss cycles
system.cpu.dcache.ReadReq_miss_latency::total  68575678000                       # number of ReadReq miss cycles
system.cpu.dcache.WriteReq_miss_latency::cpu.data  49230168000                       # number of WriteReq miss cycles
system.cpu.dcache.WriteReq_miss_latency::total  49230168000                       # number of WriteReq miss cycles
system.cpu.dcache.demand_miss_latency::cpu.data 117805846000                       # number of demand (read+write) miss cycles
system.cpu.dcache.demand_miss_latency::total 117805846000                       # number of demand (read+write) miss cycles
system.cpu.dcache.overall_miss_latency::cpu.data 117805846000                       # number of overall miss cycles
system.cpu.dcache.overall_miss_latency::total 117805846000                       # number of overall miss cycles
system.cpu.dcache.ReadReq_accesses::cpu.data    225930378                       # number of ReadReq accesses(hits+misses)
system.cpu.dcache.ReadReq_accesses::total    225930378                       # number of ReadReq accesses(hits+misses)
system.cpu.dcache.WriteReq_accesses::cpu.data     70038712                       # number of WriteReq accesses(hits+misses)
system.cpu.dcache.WriteReq_accesses::total     70038712                       # number of WriteReq accesses(hits+misses)
system.cpu.dcache.SoftPFReq_accesses::cpu.data        16384                       # number of SoftPFReq accesses(hits+misses)
system.cpu.dcache.SoftPFReq_accesses::total        16384                       # number of SoftPFReq accesses(hits+misses)
system.cpu.dcache.demand_accesses::cpu.data    295969090                       # number of demand (read+write) accesses
system.cpu.dcache.demand_accesses::total    295969090                       # number of demand (read+write) accesses
system.cpu.dcache.overall_accesses::cpu.data    295985474                       # number of overall (read+write) accesses
system.cpu.dcache.overall_accesses::total    295985474                       # number of overall (read+write) accesses
system.cpu.dcache.ReadReq_miss_rate::cpu.data     0.008524                       # miss rate for ReadReq accesses
system.cpu.dcache.ReadReq_miss_rate::total     0.008524                       # miss rate for ReadReq accesses
system.cpu.dcache.WriteReq_miss_rate::cpu.data     0.010628                       # miss rate for WriteReq accesses
system.cpu.dcache.WriteReq_miss_rate::total     0.010628                       # miss rate for WriteReq accesses
system.cpu.dcache.SoftPFReq_miss_rate::cpu.data            1                       # miss rate for SoftPFReq accesses
system.cpu.dcache.SoftPFReq_miss_rate::total            1                       # miss rate for SoftPFReq accesses
system.cpu.dcache.demand_miss_rate::cpu.data     0.009022                       # miss rate for demand accesses
system.cpu.dcache.demand_miss_rate::total     0.009022                       # miss rate for demand accesses
system.cpu.dcache.overall_miss_rate::cpu.data     0.009077                       # miss rate for overall accesses
system.cpu.dcache.overall_miss_rate::total     0.009077                       # miss rate for overall accesses
system.cpu.dcache.ReadReq_avg_miss_latency::cpu.data 35607.783943                       # average ReadReq miss latency
system.cpu.dcache.ReadReq_avg_miss_latency::total 35607.783943                       # average ReadReq miss latency
system.cpu.dcache.WriteReq_avg_miss_latency::cpu.data 66134.735462                       # average WriteReq miss latency
system.cpu.dcache.WriteReq_avg_miss_latency::total 66134.735462                       # average WriteReq miss latency
system.cpu.dcache.demand_avg_miss_latency::cpu.data 44117.842722                       # average overall miss latency
system.cpu.dcache.demand_avg_miss_latency::total 44117.842722                       # average overall miss latency
system.cpu.dcache.overall_avg_miss_latency::cpu.data 43848.797642                       # average overall miss latency
system.cpu.dcache.overall_avg_miss_latency::total 43848.797642                       # average overall miss latency
system.cpu.dcache.blocked_cycles::no_mshrs         3005                       # number of cycles access was blocked
system.cpu.dcache.blocked_cycles::no_targets            0                       # number of cycles access was blocked
system.cpu.dcache.blocked::no_mshrs                15                       # number of cycles access was blocked
system.cpu.dcache.blocked::no_targets               0                       # number of cycles access was blocked
system.cpu.dcache.avg_blocked_cycles::no_mshrs   200.333333                       # average number of cycles each access was blocked
system.cpu.dcache.avg_blocked_cycles::no_targets          nan                       # average number of cycles each access was blocked
system.cpu.dcache.writebacks::writebacks      1215377                       # number of writebacks
system.cpu.dcache.writebacks::total           1215377                       # number of writebacks
system.cpu.dcache.ReadReq_mshr_misses::cpu.data      1925862                       # number of ReadReq MSHR misses
system.cpu.dcache.ReadReq_mshr_misses::total      1925862                       # number of ReadReq MSHR misses
system.cpu.dcache.WriteReq_mshr_misses::cpu.data       744392                       # number of WriteReq MSHR misses
system.cpu.dcache.WriteReq_mshr_misses::total       744392                       # number of WriteReq MSHR misses
system.cpu.dcache.SoftPFReq_mshr_misses::cpu.data        16384                       # number of SoftPFReq MSHR misses
system.cpu.dcache.SoftPFReq_mshr_misses::total        16384                       # number of SoftPFReq MSHR misses
system.cpu.dcache.demand_mshr_misses::cpu.data      2670254                       # number of demand (read+write) MSHR misses
system.cpu.dcache.demand_mshr_misses::total      2670254                       # number of demand (read+write) MSHR misses
system.cpu.dcache.overall_mshr_misses::cpu.data      2686638                       # number of overall MSHR misses
system.cpu.dcache.overall_mshr_misses::total      2686638                       # number of overall MSHR misses
system.cpu.dcache.ReadReq_mshr_miss_latency::cpu.data  66649816000                       # number of ReadReq MSHR miss cycles
system.cpu.dcache.ReadReq_mshr_miss_latency::total  66649816000                       # number of ReadReq MSHR miss cycles
system.cpu.dcache.WriteReq_mshr_miss_latency::cpu.data  48485776000                       # number of WriteReq MSHR miss cycles
system.cpu.dcache.WriteReq_mshr_miss_latency::total  48485776000                       # number of WriteReq MSHR miss cycles
system.cpu.dcache.SoftPFReq_mshr_miss_latency::cpu.data   1370968000                       # number of SoftPFReq MSHR miss cycles
system.cpu.dcache.SoftPFReq_mshr_miss_latency::total   1370968000                       # number of SoftPFReq MSHR miss cycles
system.cpu.dcache.demand_mshr_miss_latency::cpu.data 115135592000                       # number of demand (read+write) MSHR miss cycles
system.cpu.dcache.demand_mshr_miss_latency::total 115135592000                       # number of demand (read+write) MSHR miss cycles
system.cpu.dcache.overall_mshr_miss_latency::cpu.data 116506560000                       # number of overall MSHR miss cycles
system.cpu.dcache.overall_mshr_miss_latency::total 116506560000                       # number of overall MSHR miss cycles
system.cpu.dcache.ReadReq_mshr_miss_rate::cpu.data     0.008524                       # mshr miss rate for ReadReq accesses
system.cpu.dcache.ReadReq_mshr_miss_rate::total     0.008524                       # mshr miss rate for ReadReq accesses
system.cpu.dcache.WriteReq_mshr_miss_rate::cpu.data     0.010628                       # mshr miss rate for WriteReq accesses
system.cpu.dcache.WriteReq_mshr_miss_rate::total     0.010628                       # mshr miss rate for WriteReq accesses
system.cpu.dcache.SoftPFReq_mshr_miss_rate::cpu.data            1                       # mshr miss rate for SoftPFReq accesses
system.cpu.dcache.SoftPFReq_mshr_miss_rate::total            1                       # mshr miss rate for SoftPFReq accesses
system.cpu.dcache.demand_mshr_miss_rate::cpu.data     0.009022                       # mshr miss rate for demand accesses
system.cpu.dcache.demand_mshr_miss_rate::total     0.009022                       # mshr miss rate for demand accesses
system.cpu.dcache.overall_mshr_miss_rate::cpu.data     0.009077                       # mshr miss rate for overall accesses
system.cpu.dcache.overall_mshr_miss_rate::total     0.009077                       # mshr miss rate for overall accesses
system.cpu.dcache.ReadReq_avg_mshr_miss_latency::cpu.data 34607.783943                       # average ReadReq mshr miss latency
system.cpu.dcache.ReadReq_avg_mshr_miss_latency::total 34607.783943                       # average ReadReq mshr miss latency
system.cpu.dcache.WriteReq_avg_mshr_miss_latency::cpu.data 65134.735462                       # average WriteReq mshr miss latency
system.cpu.dcache.WriteReq_avg_mshr_miss_latency::total 65134.735462                       # average WriteReq mshr miss latency
system.cpu.dcache.SoftPFReq_avg_mshr_miss_latency::cpu.data 83677.246094                       # average SoftPFReq mshr miss latency
system.cpu.dcache.SoftPFReq_avg_mshr_miss_latency::total 83677.246094                       # average SoftPFReq mshr miss latency
system.cpu.dcache.demand_avg_mshr_miss_latency::cpu.data 43117.842722                       # average overall mshr miss latency
system.cpu.dcache.demand_avg_mshr_miss_latency::total 43117.842722                       # average overall mshr miss latency
system.cpu.dcache.overall_avg_mshr_miss_latency::cpu.data 43365.187271                       # average overall mshr miss latency
system.cpu.dcache.overall_avg_mshr_miss_latency::total 43365.187271                       # average overall mshr miss latency
system.cpu.dtb_walker_cache.tags.pwrStateResidencyTicks::UNDEFINED 1098683383500                       # Cumulative time (in ticks) in various power states
system.cpu.dtb_walker_cache.tags.replacements            0                       # number of replacements
system.cpu.dtb_walker_cache.tags.tagsinuse            0                       # Cycle average of tags in use
system.cpu.dtb_walker_cache.tags.total_refs            0                       # Total number of references to valid blocks.
system.cpu.dtb_walker_cache.tags.sampled_refs            0                       # Sample count of references to valid blocks.
system.cpu.dtb_walker_cache.tags.avg_refs          nan                       # Average number of references to valid blocks.
system.cpu.dtb_walker_cache.tags.warmup_cycle            0                       # Cycle when the warmup percentage was hit.
system.cpu.dtb_walker_cache.tags.tag_accesses            0                       # Number of tag accesses
system.cpu.dtb_walker_cache.tags.data_accesses            0                       # Number of data accesses
system.cpu.dtb_walker_cache.pwrStateResidencyTicks::UNDEFINED 1098683383500                       # Cumulative time (in ticks) in various power states
system.cpu.dtb_walker_cache.blocked_cycles::no_mshrs            0                       # number of cycles access was blocked
system.cpu.dtb_walker_cache.blocked_cycles::no_targets            0                       # number of cycles access was blocked
system.cpu.dtb_walker_cache.blocked::no_mshrs            0                       # number of cycles access was blocked
system.cpu.dtb_walker_cache.blocked::no_targets            0                       # number of cycles access was blocked
system.cpu.dtb_walker_cache.avg_blocked_cycles::no_mshrs          nan                       # average number of cycles each access was blocked
system.cpu.dtb_walker_cache.avg_blocked_cycles::no_targets          nan                       # average number of cycles each access was blocked
system.cpu.icache.tags.pwrStateResidencyTicks::UNDEFINED 1098683383500                       # Cumulative time (in ticks) in various power states
system.cpu.icache.tags.replacements               814                       # number of replacements
system.cpu.icache.tags.tagsinuse           893.430970                       # Cycle average of tags in use
system.cpu.icache.tags.total_refs           687396031                       # Total number of references to valid blocks.
system.cpu.icache.tags.sampled_refs              1831                       # Sample count of references to valid blocks.
system.cpu.icache.tags.avg_refs          375421.098307                       # Average number of references to valid blocks.
system.cpu.icache.tags.warmup_cycle                 0                       # Cycle when the warmup percentage was hit.
system.cpu.icache.tags.occ_blocks::cpu.inst   893.430970                       # Average occupied blocks per requestor
system.cpu.icache.tags.occ_percent::cpu.inst     0.872491                       # Average percentage of cache occupancy
system.cpu.icache.tags.occ_percent::total     0.872491                       # Average percentage of cache occupancy
system.cpu.icache.tags.occ_task_id_blocks::1024         1017                       # Occupied blocks per task id
system.cpu.icache.tags.age_task_id_blocks_1024::1           14                       # Occupied blocks per task id
system.cpu.icache.tags.age_task_id_blocks_1024::3           50                       # Occupied blocks per task id
system.cpu.icache.tags.age_task_id_blocks_1024::4          953                       # Occupied blocks per task id
system.cpu.icache.tags.occ_task_id_percent::1024     0.993164                       # Percentage of cache occupancy per task id
system.cpu.icache.tags.tag_accesses        2749593279                       # Number of tag accesses
system.cpu.icache.tags.data_accesses       2749593279                       # Number of data accesses
system.cpu.icache.pwrStateResidencyTicks::UNDEFINED 1098683383500                       # Cumulative time (in ticks) in various power states
system.cpu.icache.ReadReq_hits::cpu.inst    687396031                       # number of ReadReq hits
system.cpu.icache.ReadReq_hits::total       687396031                       # number of ReadReq hits
system.cpu.icache.demand_hits::cpu.inst     687396031                       # number of demand (read+write) hits
system.cpu.icache.demand_hits::total        687396031                       # number of demand (read+write) hits
system.cpu.icache.overall_hits::cpu.inst    687396031                       # number of overall hits
system.cpu.icache.overall_hits::total       687396031                       # number of overall hits
system.cpu.icache.ReadReq_misses::cpu.inst         1831                       # number of ReadReq misses
system.cpu.icache.ReadReq_misses::total          1831                       # number of ReadReq misses
system.cpu.icache.demand_misses::cpu.inst         1831                       # number of demand (read+write) misses
system.cpu.icache.demand_misses::total           1831                       # number of demand (read+write) misses
system.cpu.icache.overall_misses::cpu.inst         1831                       # number of overall misses
system.cpu.icache.overall_misses::total          1831                       # number of overall misses
system.cpu.icache.ReadReq_miss_latency::cpu.inst    164845000                       # number of ReadReq miss cycles
system.cpu.icache.ReadReq_miss_latency::total    164845000                       # number of ReadReq miss cycles
system.cpu.icache.demand_miss_latency::cpu.inst    164845000                       # number of demand (read+write) miss cycles
system.cpu.icache.demand_miss_latency::total    164845000                       # number of demand (read+write) miss cycles
system.cpu.icache.overall_miss_latency::cpu.inst    164845000                       # number of overall miss cycles
system.cpu.icache.overall_miss_latency::total    164845000                       # number of overall miss cycles
system.cpu.icache.ReadReq_accesses::cpu.inst    687397862                       # number of ReadReq accesses(hits+misses)
system.cpu.icache.ReadReq_accesses::total    687397862                       # number of ReadReq accesses(hits+misses)
system.cpu.icache.demand_accesses::cpu.inst    687397862                       # number of demand (read+write) accesses
system.cpu.icache.demand_accesses::total    687397862                       # number of demand (read+write) accesses
system.cpu.icache.overall_accesses::cpu.inst    687397862                       # number of overall (read+write) accesses
system.cpu.icache.overall_accesses::total    687397862                       # number of overall (read+write) accesses
system.cpu.icache.ReadReq_miss_rate::cpu.inst     0.000003                       # miss rate for ReadReq accesses
system.cpu.icache.ReadReq_miss_rate::total     0.000003                       # miss rate for ReadReq accesses
system.cpu.icache.demand_miss_rate::cpu.inst     0.000003                       # miss rate for demand accesses
system.cpu.icache.demand_miss_rate::total     0.000003                       # miss rate for demand accesses
system.cpu.icache.overall_miss_rate::cpu.inst     0.000003                       # miss rate for overall accesses
system.cpu.icache.overall_miss_rate::total     0.000003                       # miss rate for overall accesses
system.cpu.icache.ReadReq_avg_miss_latency::cpu.inst 90030.038230                       # average ReadReq miss latency
system.cpu.icache.ReadReq_avg_miss_latency::total 90030.038230                       # average ReadReq miss latency
system.cpu.icache.demand_avg_miss_latency::cpu.inst 90030.038230                       # average overall miss latency
system.cpu.icache.demand_avg_miss_latency::total 90030.038230                       # average overall miss latency
system.cpu.icache.overall_avg_miss_latency::cpu.inst 90030.038230                       # average overall miss latency
system.cpu.icache.overall_avg_miss_latency::total 90030.038230                       # average overall miss latency
system.cpu.icache.blocked_cycles::no_mshrs            0                       # number of cycles access was blocked
system.cpu.icache.blocked_cycles::no_targets            0                       # number of cycles access was blocked
system.cpu.icache.blocked::no_mshrs                 0                       # number of cycles access was blocked
system.cpu.icache.blocked::no_targets               0                       # number of cycles access was blocked
system.cpu.icache.avg_blocked_cycles::no_mshrs          nan                       # average number of cycles each access was blocked
system.cpu.icache.avg_blocked_cycles::no_targets          nan                       # average number of cycles each access was blocked
system.cpu.icache.writebacks::writebacks          814                       # number of writebacks
system.cpu.icache.writebacks::total               814                       # number of writebacks
system.cpu.icache.ReadReq_mshr_misses::cpu.inst         1831                       # number of ReadReq MSHR misses
system.cpu.icache.ReadReq_mshr_misses::total         1831                       # number of ReadReq MSHR misses
system.cpu.icache.demand_mshr_misses::cpu.inst         1831                       # number of demand (read+write) MSHR misses
system.cpu.icache.demand_mshr_misses::total         1831                       # number of demand (read+write) MSHR misses
system.cpu.icache.overall_mshr_misses::cpu.inst         1831                       # number of overall MSHR misses
system.cpu.icache.overall_mshr_misses::total         1831                       # number of overall MSHR misses
system.cpu.icache.ReadReq_mshr_miss_latency::cpu.inst    163014000                       # number of ReadReq MSHR miss cycles
system.cpu.icache.ReadReq_mshr_miss_latency::total    163014000                       # number of ReadReq MSHR miss cycles
system.cpu.icache.demand_mshr_miss_latency::cpu.inst    163014000                       # number of demand (read+write) MSHR miss cycles
system.cpu.icache.demand_mshr_miss_latency::total    163014000                       # number of demand (read+write) MSHR miss cycles
system.cpu.icache.overall_mshr_miss_latency::cpu.inst    163014000                       # number of overall MSHR miss cycles
system.cpu.icache.overall_mshr_miss_latency::total    163014000                       # number of overall MSHR miss cycles
system.cpu.icache.ReadReq_mshr_miss_rate::cpu.inst     0.000003                       # mshr miss rate for ReadReq accesses
system.cpu.icache.ReadReq_mshr_miss_rate::total     0.000003                       # mshr miss rate for ReadReq accesses
system.cpu.icache.demand_mshr_miss_rate::cpu.inst     0.000003                       # mshr miss rate for demand accesses
system.cpu.icache.demand_mshr_miss_rate::total     0.000003                       # mshr miss rate for demand accesses
system.cpu.icache.overall_mshr_miss_rate::cpu.inst     0.000003                       # mshr miss rate for overall accesses
system.cpu.icache.overall_mshr_miss_rate::total     0.000003                       # mshr miss rate for overall accesses
system.cpu.icache.ReadReq_avg_mshr_miss_latency::cpu.inst 89030.038230                       # average ReadReq mshr miss latency
system.cpu.icache.ReadReq_avg_mshr_miss_latency::total 89030.038230                       # average ReadReq mshr miss latency
system.cpu.icache.demand_avg_mshr_miss_latency::cpu.inst 89030.038230                       # average overall mshr miss latency
system.cpu.icache.demand_avg_mshr_miss_latency::total 89030.038230                       # average overall mshr miss latency
system.cpu.icache.overall_avg_mshr_miss_latency::cpu.inst 89030.038230                       # average overall mshr miss latency
system.cpu.icache.overall_avg_mshr_miss_latency::total 89030.038230                       # average overall mshr miss latency
system.cpu.itb_walker_cache.tags.pwrStateResidencyTicks::UNDEFINED 1098683383500                       # Cumulative time (in ticks) in various power states
system.cpu.itb_walker_cache.tags.replacements            0                       # number of replacements
system.cpu.itb_walker_cache.tags.tagsinuse            0                       # Cycle average of tags in use
system.cpu.itb_walker_cache.tags.total_refs            0                       # Total number of references to valid blocks.
system.cpu.itb_walker_cache.tags.sampled_refs            0                       # Sample count of references to valid blocks.
system.cpu.itb_walker_cache.tags.avg_refs          nan                       # Average number of references to valid blocks.
system.cpu.itb_walker_cache.tags.warmup_cycle            0                       # Cycle when the warmup percentage was hit.
system.cpu.itb_walker_cache.tags.tag_accesses            0                       # Number of tag accesses
system.cpu.itb_walker_cache.tags.data_accesses            0                       # Number of data accesses
system.cpu.itb_walker_cache.pwrStateResidencyTicks::UNDEFINED 1098683383500                       # Cumulative time (in ticks) in various power states
system.cpu.itb_walker_cache.blocked_cycles::no_mshrs            0                       # number of cycles access was blocked
system.cpu.itb_walker_cache.blocked_cycles::no_targets            0                       # number of cycles access was blocked
system.cpu.itb_walker_cache.blocked::no_mshrs            0                       # number of cycles access was blocked
system.cpu.itb_walker_cache.blocked::no_targets            0                       # number of cycles access was blocked
system.cpu.itb_walker_cache.avg_blocked_cycles::no_mshrs          nan                       # average number of cycles each access was blocked
system.cpu.itb_walker_cache.avg_blocked_cycles::no_targets          nan                       # average number of cycles each access was blocked
system.l2.tags.pwrStateResidencyTicks::UNDEFINED 1098683383500                       # Cumulative time (in ticks) in various power states
system.l2.tags.replacements                    955051                       # number of replacements
system.l2.tags.tagsinuse                 32638.069272                       # Cycle average of tags in use
system.l2.tags.total_refs                     4385967                       # Total number of references to valid blocks.
system.l2.tags.sampled_refs                    987819                       # Sample count of references to valid blocks.
system.l2.tags.avg_refs                      4.440051                       # Average number of references to valid blocks.
system.l2.tags.warmup_cycle                5516293000                       # Cycle when the warmup percentage was hit.
system.l2.tags.occ_blocks::writebacks       88.148122                       # Average occupied blocks per requestor
system.l2.tags.occ_blocks::cpu.inst         80.974624                       # Average occupied blocks per requestor
system.l2.tags.occ_blocks::cpu.data      32468.946526                       # Average occupied blocks per requestor
system.l2.tags.occ_percent::writebacks       0.002690                       # Average percentage of cache occupancy
system.l2.tags.occ_percent::cpu.inst         0.002471                       # Average percentage of cache occupancy
system.l2.tags.occ_percent::cpu.data         0.990874                       # Average percentage of cache occupancy
system.l2.tags.occ_percent::total            0.996035                       # Average percentage of cache occupancy
system.l2.tags.occ_task_id_blocks::1024         32768                       # Occupied blocks per task id
system.l2.tags.age_task_id_blocks_1024::0            1                       # Occupied blocks per task id
system.l2.tags.age_task_id_blocks_1024::1           31                       # Occupied blocks per task id
system.l2.tags.age_task_id_blocks_1024::2           32                       # Occupied blocks per task id
system.l2.tags.age_task_id_blocks_1024::3          498                       # Occupied blocks per task id
system.l2.tags.age_task_id_blocks_1024::4        32206                       # Occupied blocks per task id
system.l2.tags.occ_task_id_percent::1024            1                       # Percentage of cache occupancy per task id
system.l2.tags.tag_accesses                  22483307                       # Number of tag accesses
system.l2.tags.data_accesses                 22483307                       # Number of data accesses
system.l2.pwrStateResidencyTicks::UNDEFINED 1098683383500                       # Cumulative time (in ticks) in various power states
system.l2.WritebackDirty_hits::writebacks      1215377                       # number of WritebackDirty hits
system.l2.WritebackDirty_hits::total          1215377                       # number of WritebackDirty hits
system.l2.WritebackClean_hits::writebacks          814                       # number of WritebackClean hits
system.l2.WritebackClean_hits::total              814                       # number of WritebackClean hits
system.l2.ReadExReq_hits::cpu.data             270121                       # number of ReadExReq hits
system.l2.ReadExReq_hits::total                270121                       # number of ReadExReq hits
system.l2.ReadCleanReq_hits::cpu.inst              18                       # number of ReadCleanReq hits
system.l2.ReadCleanReq_hits::total                 18                       # number of ReadCleanReq hits
system.l2.ReadSharedReq_hits::cpu.data        1431732                       # number of ReadSharedReq hits
system.l2.ReadSharedReq_hits::total           1431732                       # number of ReadSharedReq hits
system.l2.demand_hits::cpu.inst                    18                       # number of demand (read+write) hits
system.l2.demand_hits::cpu.data               1701853                       # number of demand (read+write) hits
system.l2.demand_hits::total                  1701871                       # number of demand (read+write) hits
system.l2.overall_hits::cpu.inst                   18                       # number of overall hits
system.l2.overall_hits::cpu.data              1701853                       # number of overall hits
system.l2.overall_hits::total                 1701871                       # number of overall hits
system.l2.ReadExReq_misses::cpu.data           474271                       # number of ReadExReq misses
system.l2.ReadExReq_misses::total              474271                       # number of ReadExReq misses
system.l2.ReadCleanReq_misses::cpu.inst          1813                       # number of ReadCleanReq misses
system.l2.ReadCleanReq_misses::total             1813                       # number of ReadCleanReq misses
system.l2.ReadSharedReq_misses::cpu.data       510514                       # number of ReadSharedReq misses
system.l2.ReadSharedReq_misses::total          510514                       # number of ReadSharedReq misses
system.l2.demand_misses::cpu.inst                1813                       # number of demand (read+write) misses
system.l2.demand_misses::cpu.data              984785                       # number of demand (read+write) misses
system.l2.demand_misses::total                 986598                       # number of demand (read+write) misses
system.l2.overall_misses::cpu.inst               1813                       # number of overall misses
system.l2.overall_misses::cpu.data             984785                       # number of overall misses
system.l2.overall_misses::total                986598                       # number of overall misses
system.l2.ReadExReq_miss_latency::cpu.data  44532917500                       # number of ReadExReq miss cycles
system.l2.ReadExReq_miss_latency::total   44532917500                       # number of ReadExReq miss cycles
system.l2.ReadCleanReq_miss_latency::cpu.inst    160077500                       # number of ReadCleanReq miss cycles
system.l2.ReadCleanReq_miss_latency::total    160077500                       # number of ReadCleanReq miss cycles
system.l2.ReadSharedReq_miss_latency::cpu.data  50074229000                       # number of ReadSharedReq miss cycles
system.l2.ReadSharedReq_miss_latency::total  50074229000                       # number of ReadSharedReq miss cycles
system.l2.demand_miss_latency::cpu.inst     160077500                       # number of demand (read+write) miss cycles
system.l2.demand_miss_latency::cpu.data   94607146500                       # number of demand (read+write) miss cycles
system.l2.demand_miss_latency::total      94767224000                       # number of demand (read+write) miss cycles
system.l2.overall_miss_latency::cpu.inst    160077500                       # number of overall miss cycles
system.l2.overall_miss_latency::cpu.data  94607146500                       # number of overall miss cycles
system.l2.overall_miss_latency::total     94767224000                       # number of overall miss cycles
system.l2.WritebackDirty_accesses::writebacks      1215377                       # number of WritebackDirty accesses(hits+misses)
system.l2.WritebackDirty_accesses::total      1215377                       # number of WritebackDirty accesses(hits+misses)
system.l2.WritebackClean_accesses::writebacks          814                       # number of WritebackClean accesses(hits+misses)
system.l2.WritebackClean_accesses::total          814                       # number of WritebackClean accesses(hits+misses)
system.l2.ReadExReq_accesses::cpu.data         744392                       # number of ReadExReq accesses(hits+misses)
system.l2.ReadExReq_accesses::total            744392                       # number of ReadExReq accesses(hits+misses)
system.l2.ReadCleanReq_accesses::cpu.inst         1831                       # number of ReadCleanReq accesses(hits+misses)
system.l2.ReadCleanReq_accesses::total           1831                       # number of ReadCleanReq accesses(hits+misses)
system.l2.ReadSharedReq_accesses::cpu.data      1942246                       # number of ReadSharedReq accesses(hits+misses)
system.l2.ReadSharedReq_accesses::total       1942246                       # number of ReadSharedReq accesses(hits+misses)
system.l2.demand_accesses::cpu.inst              1831                       # number of demand (read+write) accesses
system.l2.demand_accesses::cpu.data           2686638                       # number of demand (read+write) accesses
system.l2.demand_accesses::total              2688469                       # number of demand (read+write) accesses
system.l2.overall_accesses::cpu.inst             1831                       # number of overall (read+write) accesses
system.l2.overall_accesses::cpu.data          2686638                       # number of overall (read+write) accesses
system.l2.overall_accesses::total             2688469                       # number of overall (read+write) accesses
system.l2.ReadExReq_miss_rate::cpu.data      0.637125                       # miss rate for ReadExReq accesses
system.l2.ReadExReq_miss_rate::total         0.637125                       # miss rate for ReadExReq accesses
system.l2.ReadCleanReq_miss_rate::cpu.inst     0.990169                       # miss rate for ReadCleanReq accesses
system.l2.ReadCleanReq_miss_rate::total      0.990169                       # miss rate for ReadCleanReq accesses
system.l2.ReadSharedReq_miss_rate::cpu.data     0.262847                       # miss rate for ReadSharedReq accesses
system.l2.ReadSharedReq_miss_rate::total     0.262847                       # miss rate for ReadSharedReq accesses
system.l2.demand_miss_rate::cpu.inst         0.990169                       # miss rate for demand accesses
system.l2.demand_miss_rate::cpu.data         0.366549                       # miss rate for demand accesses
system.l2.demand_miss_rate::total            0.366974                       # miss rate for demand accesses
system.l2.overall_miss_rate::cpu.inst        0.990169                       # miss rate for overall accesses
system.l2.overall_miss_rate::cpu.data        0.366549                       # miss rate for overall accesses
system.l2.overall_miss_rate::total           0.366974                       # miss rate for overall accesses
system.l2.ReadExReq_avg_miss_latency::cpu.data 93897.618661                       # average ReadExReq miss latency
system.l2.ReadExReq_avg_miss_latency::total 93897.618661                       # average ReadExReq miss latency
system.l2.ReadCleanReq_avg_miss_latency::cpu.inst 88294.263651                       # average ReadCleanReq miss latency
system.l2.ReadCleanReq_avg_miss_latency::total 88294.263651                       # average ReadCleanReq miss latency
system.l2.ReadSharedReq_avg_miss_latency::cpu.data 98085.907536                       # average ReadSharedReq miss latency
system.l2.ReadSharedReq_avg_miss_latency::total 98085.907536                       # average ReadSharedReq miss latency
system.l2.demand_avg_miss_latency::cpu.inst 88294.263651                       # average overall miss latency
system.l2.demand_avg_miss_latency::cpu.data 96068.833806                       # average overall miss latency
system.l2.demand_avg_miss_latency::total 96054.547039                       # average overall miss latency
system.l2.overall_avg_miss_latency::cpu.inst 88294.263651                       # average overall miss latency
system.l2.overall_avg_miss_latency::cpu.data 96068.833806                       # average overall miss latency
system.l2.overall_avg_miss_latency::total 96054.547039                       # average overall miss latency
system.l2.blocked_cycles::no_mshrs                  0                       # number of cycles access was blocked
system.l2.blocked_cycles::no_targets                0                       # number of cycles access was blocked
system.l2.blocked::no_mshrs                         0                       # number of cycles access was blocked
system.l2.blocked::no_targets                       0                       # number of cycles access was blocked
system.l2.avg_blocked_cycles::no_mshrs            nan                       # average number of cycles each access was blocked
system.l2.avg_blocked_cycles::no_targets          nan                       # average number of cycles each access was blocked
system.l2.writebacks::writebacks               559761                       # number of writebacks
system.l2.writebacks::total                    559761                       # number of writebacks
system.l2.CleanEvict_mshr_misses::writebacks           86                       # number of CleanEvict MSHR misses
system.l2.CleanEvict_mshr_misses::total            86                       # number of CleanEvict MSHR misses
system.l2.ReadExReq_mshr_misses::cpu.data       474271                       # number of ReadExReq MSHR misses
system.l2.ReadExReq_mshr_misses::total         474271                       # number of ReadExReq MSHR misses
system.l2.ReadCleanReq_mshr_misses::cpu.inst         1813                       # number of ReadCleanReq MSHR misses
system.l2.ReadCleanReq_mshr_misses::total         1813                       # number of ReadCleanReq MSHR misses
system.l2.ReadSharedReq_mshr_misses::cpu.data       510514                       # number of ReadSharedReq MSHR misses
system.l2.ReadSharedReq_mshr_misses::total       510514                       # number of ReadSharedReq MSHR misses
system.l2.demand_mshr_misses::cpu.inst           1813                       # number of demand (read+write) MSHR misses
system.l2.demand_mshr_misses::cpu.data         984785                       # number of demand (read+write) MSHR misses
system.l2.demand_mshr_misses::total            986598                       # number of demand (read+write) MSHR misses
system.l2.overall_mshr_misses::cpu.inst          1813                       # number of overall MSHR misses
system.l2.overall_mshr_misses::cpu.data        984785                       # number of overall MSHR misses
system.l2.overall_mshr_misses::total           986598                       # number of overall MSHR misses
system.l2.ReadExReq_mshr_miss_latency::cpu.data  39790207500                       # number of ReadExReq MSHR miss cycles
system.l2.ReadExReq_mshr_miss_latency::total  39790207500                       # number of ReadExReq MSHR miss cycles
system.l2.ReadCleanReq_mshr_miss_latency::cpu.inst    141947500                       # number of ReadCleanReq MSHR miss cycles
system.l2.ReadCleanReq_mshr_miss_latency::total    141947500                       # number of ReadCleanReq MSHR miss cycles
system.l2.ReadSharedReq_mshr_miss_latency::cpu.data  44969089000                       # number of ReadSharedReq MSHR miss cycles
system.l2.ReadSharedReq_mshr_miss_latency::total  44969089000                       # number of ReadSharedReq MSHR miss cycles
system.l2.demand_mshr_miss_latency::cpu.inst    141947500                       # number of demand (read+write) MSHR miss cycles
system.l2.demand_mshr_miss_latency::cpu.data  84759296500                       # number of demand (read+write) MSHR miss cycles
system.l2.demand_mshr_miss_latency::total  84901244000                       # number of demand (read+write) MSHR miss cycles
system.l2.overall_mshr_miss_latency::cpu.inst    141947500                       # number of overall MSHR miss cycles
system.l2.overall_mshr_miss_latency::cpu.data  84759296500                       # number of overall MSHR miss cycles
system.l2.overall_mshr_miss_latency::total  84901244000                       # number of overall MSHR miss cycles
system.l2.CleanEvict_mshr_miss_rate::writebacks          inf                       # mshr miss rate for CleanEvict accesses
system.l2.CleanEvict_mshr_miss_rate::total          inf                       # mshr miss rate for CleanEvict accesses
system.l2.ReadExReq_mshr_miss_rate::cpu.data     0.637125                       # mshr miss rate for ReadExReq accesses
system.l2.ReadExReq_mshr_miss_rate::total     0.637125                       # mshr miss rate for ReadExReq accesses
system.l2.ReadCleanReq_mshr_miss_rate::cpu.inst     0.990169                       # mshr miss rate for ReadCleanReq accesses
system.l2.ReadCleanReq_mshr_miss_rate::total     0.990169                       # mshr miss rate for ReadCleanReq accesses
system.l2.ReadSharedReq_mshr_miss_rate::cpu.data     0.262847                       # mshr miss rate for ReadSharedReq accesses
system.l2.ReadSharedReq_mshr_miss_rate::total     0.262847                       # mshr miss rate for ReadSharedReq accesses
system.l2.demand_mshr_miss_rate::cpu.inst     0.990169                       # mshr miss rate for demand accesses
system.l2.demand_mshr_miss_rate::cpu.data     0.366549                       # mshr miss rate for demand accesses
system.l2.demand_mshr_miss_rate::total       0.366974                       # mshr miss rate for demand accesses
system.l2.overall_mshr_miss_rate::cpu.inst     0.990169                       # mshr miss rate for overall accesses
system.l2.overall_mshr_miss_rate::cpu.data     0.366549                       # mshr miss rate for overall accesses
system.l2.overall_mshr_miss_rate::total      0.366974                       # mshr miss rate for overall accesses
system.l2.ReadExReq_avg_mshr_miss_latency::cpu.data 83897.618661                       # average ReadExReq mshr miss latency
system.l2.ReadExReq_avg_mshr_miss_latency::total 83897.618661                       # average ReadExReq mshr miss latency
system.l2.ReadCleanReq_avg_mshr_miss_latency::cpu.inst 78294.263651                       # average ReadCleanReq mshr miss latency
system.l2.ReadCleanReq_avg_mshr_miss_latency::total 78294.263651                       # average ReadCleanReq mshr miss latency
system.l2.ReadSharedReq_avg_mshr_miss_latency::cpu.data 88085.907536                       # average ReadSharedReq mshr miss latency
system.l2.ReadSharedReq_avg_mshr_miss_latency::total 88085.907536                       # average ReadSharedReq mshr miss latency
system.l2.demand_avg_mshr_miss_latency::cpu.inst 78294.263651                       # average overall mshr miss latency
system.l2.demand_avg_mshr_miss_latency::cpu.data 86068.833806                       # average overall mshr miss latency
system.l2.demand_avg_mshr_miss_latency::total 86054.547039                       # average overall mshr miss latency
system.l2.overall_avg_mshr_miss_latency::cpu.inst 78294.263651                       # average overall mshr miss latency
system.l2.overall_avg_mshr_miss_latency::cpu.data 86068.833806                       # average overall mshr miss latency
system.l2.overall_avg_mshr_miss_latency::total 86054.547039                       # average overall mshr miss latency
system.membus.snoop_filter.tot_requests       1939914                       # Total number of requests made to the snoop filter.
system.membus.snoop_filter.hit_single_requests       953316                       # Number of requests hitting in the snoop filter with a single holder of the requested data.
system.membus.snoop_filter.hit_multi_requests            0                       # Number of requests hitting in the snoop filter with multiple (>1) holders of the requested data.
system.membus.snoop_filter.tot_snoops               0                       # Total number of snoops made to the snoop filter.
system.membus.snoop_filter.hit_single_snoops            0                       # Number of snoops hitting in the snoop filter with a single holder of the requested data.
system.membus.snoop_filter.hit_multi_snoops            0                       # Number of snoops hitting in the snoop filter with multiple (>1) holders of the requested data.
system.membus.pwrStateResidencyTicks::UNDEFINED 1098683383500                       # Cumulative time (in ticks) in various power states
system.membus.trans_dist::ReadResp             512327                       # Transaction distribution
system.membus.trans_dist::WritebackDirty       559761                       # Transaction distribution
system.membus.trans_dist::CleanEvict           393555                       # Transaction distribution
system.membus.trans_dist::ReadExReq            474271                       # Transaction distribution
system.membus.trans_dist::ReadExResp           474271                       # Transaction distribution
system.membus.trans_dist::ReadSharedReq        512327                       # Transaction distribution
system.membus.pkt_count_system.l2.mem_side::system.mem_ctrls.port      2926512                       # Packet count per connected master and slave (bytes)
system.membus.pkt_count_system.l2.mem_side::total      2926512                       # Packet count per connected master and slave (bytes)
system.membus.pkt_count::total                2926512                       # Packet count per connected master and slave (bytes)
system.membus.pkt_size_system.l2.mem_side::system.mem_ctrls.port     49483488                       # Cumulative packet size per connected master and slave (bytes)
system.membus.pkt_size_system.l2.mem_side::total     49483488                       # Cumulative packet size per connected master and slave (bytes)
system.membus.pkt_size::total                49483488                       # Cumulative packet size per connected master and slave (bytes)
system.membus.snoops                                0                       # Total snoops (count)
system.membus.snoopTraffic                          0                       # Total snoop traffic (bytes)
system.membus.snoop_fanout::samples            986598                       # Request fanout histogram
system.membus.snoop_fanout::mean                    0                       # Request fanout histogram
system.membus.snoop_fanout::stdev                   0                       # Request fanout histogram
system.membus.snoop_fanout::underflows              0      0.00%      0.00% # Request fanout histogram
system.membus.snoop_fanout::0                  986598    100.00%    100.00% # Request fanout histogram
system.membus.snoop_fanout::1                       0      0.00%    100.00% # Request fanout histogram
system.membus.snoop_fanout::overflows               0      0.00%    100.00% # Request fanout histogram
system.membus.snoop_fanout::min_value               0                       # Request fanout histogram
system.membus.snoop_fanout::max_value               0                       # Request fanout histogram
system.membus.snoop_fanout::total              986598                       # Request fanout histogram
system.membus.reqLayer2.occupancy          3059445000                       # Layer occupancy (ticks)
system.membus.reqLayer2.utilization               0.3                       # Layer utilization (%)
system.membus.respLayer1.occupancy         3351401750                       # Layer occupancy (ticks)
system.membus.respLayer1.utilization              0.3                       # Layer utilization (%)
system.tol2bus.snoop_filter.tot_requests      5373873                       # Total number of requests made to the snoop filter.
system.tol2bus.snoop_filter.hit_single_requests      2685404                       # Number of requests hitting in the snoop filter with a single holder of the requested data.
system.tol2bus.snoop_filter.hit_multi_requests            1                       # Number of requests hitting in the snoop filter with multiple (>1) holders of the requested data.
system.tol2bus.snoop_filter.tot_snoops           1821                       # Total number of snoops made to the snoop filter.
system.tol2bus.snoop_filter.hit_single_snoops         1821                       # Number of snoops hitting in the snoop filter with a single holder of the requested data.
system.tol2bus.snoop_filter.hit_multi_snoops            0                       # Number of snoops hitting in the snoop filter with multiple (>1) holders of the requested data.
system.tol2bus.pwrStateResidencyTicks::UNDEFINED 1098683383500                       # Cumulative time (in ticks) in various power states
system.tol2bus.trans_dist::ReadResp           1944077                       # Transaction distribution
system.tol2bus.trans_dist::WritebackDirty      1775138                       # Transaction distribution
system.tol2bus.trans_dist::WritebackClean          814                       # Transaction distribution
system.tol2bus.trans_dist::CleanEvict         1864503                       # Transaction distribution
system.tol2bus.trans_dist::ReadExReq           744392                       # Transaction distribution
system.tol2bus.trans_dist::ReadExResp          744392                       # Transaction distribution
system.tol2bus.trans_dist::ReadCleanReq          1831                       # Transaction distribution
system.tol2bus.trans_dist::ReadSharedReq      1942246                       # Transaction distribution
system.tol2bus.pkt_count_system.cpu.icache.mem_side::system.l2.cpu_side         4476                       # Packet count per connected master and slave (bytes)
system.tol2bus.pkt_count_system.cpu.dcache.mem_side::system.l2.cpu_side      8057866                       # Packet count per connected master and slave (bytes)
system.tol2bus.pkt_count::total               8062342                       # Packet count per connected master and slave (bytes)
system.tol2bus.pkt_size_system.cpu.icache.mem_side::system.l2.cpu_side        84640                       # Cumulative packet size per connected master and slave (bytes)
system.tol2bus.pkt_size_system.cpu.dcache.mem_side::system.l2.cpu_side    124864480                       # Cumulative packet size per connected master and slave (bytes)
system.tol2bus.pkt_size::total              124949120                       # Cumulative packet size per connected master and slave (bytes)
system.tol2bus.snoops                          955051                       # Total snoops (count)
system.tol2bus.snoopTraffic                  17912352                       # Total snoop traffic (bytes)
system.tol2bus.snoop_fanout::samples          3643520                       # Request fanout histogram
system.tol2bus.snoop_fanout::mean            0.000500                       # Request fanout histogram
system.tol2bus.snoop_fanout::stdev           0.022357                       # Request fanout histogram
system.tol2bus.snoop_fanout::underflows             0      0.00%      0.00% # Request fanout histogram
system.tol2bus.snoop_fanout::0                3641698     99.95%     99.95% # Request fanout histogram
system.tol2bus.snoop_fanout::1                   1822      0.05%    100.00% # Request fanout histogram
system.tol2bus.snoop_fanout::2                      0      0.00%    100.00% # Request fanout histogram
system.tol2bus.snoop_fanout::3                      0      0.00%    100.00% # Request fanout histogram
system.tol2bus.snoop_fanout::4                      0      0.00%    100.00% # Request fanout histogram
system.tol2bus.snoop_fanout::overflows              0      0.00%    100.00% # Request fanout histogram
system.tol2bus.snoop_fanout::min_value              0                       # Request fanout histogram
system.tol2bus.snoop_fanout::max_value              1                       # Request fanout histogram
system.tol2bus.snoop_fanout::total            3643520                       # Request fanout histogram
system.tol2bus.reqLayer0.occupancy         3295032000                       # Layer occupancy (ticks)
system.tol2bus.reqLayer0.utilization              0.3                       # Layer utilization (%)
system.tol2bus.respLayer0.occupancy           1831000                       # Layer occupancy (ticks)
system.tol2bus.respLayer0.utilization             0.0                       # Layer utilization (%)
system.tol2bus.respLayer1.occupancy        2686638000                       # Layer occupancy (ticks)
system.tol2bus.respLayer1.utilization             0.2                       # Layer utilization (%)

---------- End Simulation Statistics   ----------
