
---------- Begin Simulation Statistics ----------
sim_seconds                                  1.094692                       # Number of seconds simulated
sim_ticks                                1094691767500                       # Number of ticks simulated
final_tick                               1094691767500                       # Number of ticks from beginning of simulation (restored from checkpoints and never reset)
sim_freq                                 1000000000000                       # Frequency of simulated ticks
host_inst_rate                                 414172                       # Simulator instruction rate (inst/s)
host_op_rate                                   605064                       # Simulator op (including micro ops) rate (op/s)
host_tick_rate                              906781420                       # Simulator tick rate (ticks/s)
host_mem_usage                                 658952                       # Number of bytes of host memory used
host_seconds                                  1207.23                       # Real time elapsed on the host
sim_insts                                   500000001                       # Number of instructions simulated
sim_ops                                     730450447                       # Number of ops (including micro ops) simulated
system.voltage_domain.voltage                       1                       # Voltage in Volts
system.clk_domain.clock                          1000                       # Clock period in ticks
system.mem_ctrls.pwrStateResidencyTicks::UNDEFINED 1094691767500                       # Cumulative time (in ticks) in various power states
system.mem_ctrls.bytes_read::cpu.inst           57856                       # Number of bytes read from this memory
system.mem_ctrls.bytes_read::cpu.data        31511712                       # Number of bytes read from this memory
system.mem_ctrls.bytes_read::total           31569568                       # Number of bytes read from this memory
system.mem_ctrls.bytes_inst_read::cpu.inst        57856                       # Number of instructions bytes read from this memory
system.mem_ctrls.bytes_inst_read::total         57856                       # Number of instructions bytes read from this memory
system.mem_ctrls.bytes_written::writebacks     17905152                       # Number of bytes written to this memory
system.mem_ctrls.bytes_written::total        17905152                       # Number of bytes written to this memory
system.mem_ctrls.num_reads::cpu.inst             1808                       # Number of read requests responded to by this memory
system.mem_ctrls.num_reads::cpu.data           984741                       # Number of read requests responded to by this memory
system.mem_ctrls.num_reads::total              986549                       # Number of read requests responded to by this memory
system.mem_ctrls.num_writes::writebacks        559536                       # Number of write requests responded to by this memory
system.mem_ctrls.num_writes::total             559536                       # Number of write requests responded to by this memory
system.mem_ctrls.bw_read::cpu.inst              52851                       # Total read bandwidth from this memory (bytes/s)
system.mem_ctrls.bw_read::cpu.data           28785922                       # Total read bandwidth from this memory (bytes/s)
system.mem_ctrls.bw_read::total              28838774                       # Total read bandwidth from this memory (bytes/s)
system.mem_ctrls.bw_inst_read::cpu.inst         52851                       # Instruction read bandwidth from this memory (bytes/s)
system.mem_ctrls.bw_inst_read::total            52851                       # Instruction read bandwidth from this memory (bytes/s)
system.mem_ctrls.bw_write::writebacks        16356341                       # Write bandwidth from this memory (bytes/s)
system.mem_ctrls.bw_write::total             16356341                       # Write bandwidth from this memory (bytes/s)
system.mem_ctrls.bw_total::writebacks        16356341                       # Total bandwidth to/from this memory (bytes/s)
system.mem_ctrls.bw_total::cpu.inst             52851                       # Total bandwidth to/from this memory (bytes/s)
system.mem_ctrls.bw_total::cpu.data          28785922                       # Total bandwidth to/from this memory (bytes/s)
system.mem_ctrls.bw_total::total             45195115                       # Total bandwidth to/from this memory (bytes/s)
system.mem_ctrls.readReqs                      986549                       # Number of read requests accepted
system.mem_ctrls.writeReqs                     559536                       # Number of write requests accepted
system.mem_ctrls.readBursts                    986549                       # Number of DRAM read bursts, including those serviced by the write queue
system.mem_ctrls.writeBursts                   559536                       # Number of DRAM write bursts, including those merged in the write queue
system.mem_ctrls.bytesReadDRAM               63114816                       # Total number of bytes read from DRAM
system.mem_ctrls.bytesReadWrQ                   24320                       # Total number of bytes read from write queue
system.mem_ctrls.bytesWritten                31629888                       # Total number of bytes written to DRAM
system.mem_ctrls.bytesReadSys                31569568                       # Total read bytes from the system interface side
system.mem_ctrls.bytesWrittenSys             17905152                       # Total written bytes from the system interface side
system.mem_ctrls.servicedByWrQ                    380                       # Number of DRAM read bursts serviced by the write queue
system.mem_ctrls.mergedWrBursts                 65303                       # Number of DRAM write bursts merged with an existing one
system.mem_ctrls.neitherReadNorWriteReqs            0                       # Number of requests that are neither read nor write
system.mem_ctrls.perBankRdBursts::0             64470                       # Per bank write bursts
system.mem_ctrls.perBankRdBursts::1             62486                       # Per bank write bursts
system.mem_ctrls.perBankRdBursts::2             61018                       # Per bank write bursts
system.mem_ctrls.perBankRdBursts::3             60479                       # Per bank write bursts
system.mem_ctrls.perBankRdBursts::4             59662                       # Per bank write bursts
system.mem_ctrls.perBankRdBursts::5             60133                       # Per bank write bursts
system.mem_ctrls.perBankRdBursts::6             62129                       # Per bank write bursts
system.mem_ctrls.perBankRdBursts::7             61180                       # Per bank write bursts
system.mem_ctrls.perBankRdBursts::8             58800                       # Per bank write bursts
system.mem_ctrls.perBankRdBursts::9             57859                       # Per bank write bursts
system.mem_ctrls.perBankRdBursts::10            61089                       # Per bank write bursts
system.mem_ctrls.perBankRdBursts::11            62683                       # Per bank write bursts
system.mem_ctrls.perBankRdBursts::12            63519                       # Per bank write bursts
system.mem_ctrls.perBankRdBursts::13            62877                       # Per bank write bursts
system.mem_ctrls.perBankRdBursts::14            63688                       # Per bank write bursts
system.mem_ctrls.perBankRdBursts::15            64097                       # Per bank write bursts
system.mem_ctrls.perBankWrBursts::0             32306                       # Per bank write bursts
system.mem_ctrls.perBankWrBursts::1             31242                       # Per bank write bursts
system.mem_ctrls.perBankWrBursts::2             30263                       # Per bank write bursts
system.mem_ctrls.perBankWrBursts::3             29947                       # Per bank write bursts
system.mem_ctrls.perBankWrBursts::4             29365                       # Per bank write bursts
system.mem_ctrls.perBankWrBursts::5             29252                       # Per bank write bursts
system.mem_ctrls.perBankWrBursts::6             30099                       # Per bank write bursts
system.mem_ctrls.perBankWrBursts::7             30274                       # Per bank write bursts
system.mem_ctrls.perBankWrBursts::8             30338                       # Per bank write bursts
system.mem_ctrls.perBankWrBursts::9             30163                       # Per bank write bursts
system.mem_ctrls.perBankWrBursts::10            31078                       # Per bank write bursts
system.mem_ctrls.perBankWrBursts::11            31342                       # Per bank write bursts
system.mem_ctrls.perBankWrBursts::12            31727                       # Per bank write bursts
system.mem_ctrls.perBankWrBursts::13            32061                       # Per bank write bursts
system.mem_ctrls.perBankWrBursts::14            32448                       # Per bank write bursts
system.mem_ctrls.perBankWrBursts::15            32312                       # Per bank write bursts
system.mem_ctrls.numRdRetry                         0                       # Number of times read queue was full causing retry
system.mem_ctrls.numWrRetry                         0                       # Number of times write queue was full causing retry
system.mem_ctrls.totGap                  1094688522500                       # Total gap between requests
system.mem_ctrls.readPktSize::0                     0                       # Read request sizes (log2)
system.mem_ctrls.readPktSize::1                     0                       # Read request sizes (log2)
system.mem_ctrls.readPktSize::2                     0                       # Read request sizes (log2)
system.mem_ctrls.readPktSize::3                     0                       # Read request sizes (log2)
system.mem_ctrls.readPktSize::4                     0                       # Read request sizes (log2)
system.mem_ctrls.readPktSize::5                986549                       # Read request sizes (log2)
system.mem_ctrls.readPktSize::6                     0                       # Read request sizes (log2)
system.mem_ctrls.writePktSize::0                    0                       # Write request sizes (log2)
system.mem_ctrls.writePktSize::1                    0                       # Write request sizes (log2)
system.mem_ctrls.writePktSize::2                    0                       # Write request sizes (log2)
system.mem_ctrls.writePktSize::3                    0                       # Write request sizes (log2)
system.mem_ctrls.writePktSize::4                    0                       # Write request sizes (log2)
system.mem_ctrls.writePktSize::5               559536                       # Write request sizes (log2)
system.mem_ctrls.writePktSize::6                    0                       # Write request sizes (log2)
system.mem_ctrls.rdQLenPdf::0                  969712                       # What read queue length does an incoming req see
system.mem_ctrls.rdQLenPdf::1                    8178                       # What read queue length does an incoming req see
system.mem_ctrls.rdQLenPdf::2                    8265                       # What read queue length does an incoming req see
system.mem_ctrls.rdQLenPdf::3                      14                       # What read queue length does an incoming req see
system.mem_ctrls.rdQLenPdf::4                       0                       # What read queue length does an incoming req see
system.mem_ctrls.rdQLenPdf::5                       0                       # What read queue length does an incoming req see
system.mem_ctrls.rdQLenPdf::6                       0                       # What read queue length does an incoming req see
system.mem_ctrls.rdQLenPdf::7                       0                       # What read queue length does an incoming req see
system.mem_ctrls.rdQLenPdf::8                       0                       # What read queue length does an incoming req see
system.mem_ctrls.rdQLenPdf::9                       0                       # What read queue length does an incoming req see
system.mem_ctrls.rdQLenPdf::10                      0                       # What read queue length does an incoming req see
system.mem_ctrls.rdQLenPdf::11                      0                       # What read queue length does an incoming req see
system.mem_ctrls.rdQLenPdf::12                      0                       # What read queue length does an incoming req see
system.mem_ctrls.rdQLenPdf::13                      0                       # What read queue length does an incoming req see
system.mem_ctrls.rdQLenPdf::14                      0                       # What read queue length does an incoming req see
system.mem_ctrls.rdQLenPdf::15                      0                       # What read queue length does an incoming req see
system.mem_ctrls.rdQLenPdf::16                      0                       # What read queue length does an incoming req see
system.mem_ctrls.rdQLenPdf::17                      0                       # What read queue length does an incoming req see
system.mem_ctrls.rdQLenPdf::18                      0                       # What read queue length does an incoming req see
system.mem_ctrls.rdQLenPdf::19                      0                       # What read queue length does an incoming req see
system.mem_ctrls.rdQLenPdf::20                      0                       # What read queue length does an incoming req see
system.mem_ctrls.rdQLenPdf::21                      0                       # What read queue length does an incoming req see
system.mem_ctrls.rdQLenPdf::22                      0                       # What read queue length does an incoming req see
system.mem_ctrls.rdQLenPdf::23                      0                       # What read queue length does an incoming req see
system.mem_ctrls.rdQLenPdf::24                      0                       # What read queue length does an incoming req see
system.mem_ctrls.rdQLenPdf::25                      0                       # What read queue length does an incoming req see
system.mem_ctrls.rdQLenPdf::26                      0                       # What read queue length does an incoming req see
system.mem_ctrls.rdQLenPdf::27                      0                       # What read queue length does an incoming req see
system.mem_ctrls.rdQLenPdf::28                      0                       # What read queue length does an incoming req see
system.mem_ctrls.rdQLenPdf::29                      0                       # What read queue length does an incoming req see
system.mem_ctrls.rdQLenPdf::30                      0                       # What read queue length does an incoming req see
system.mem_ctrls.rdQLenPdf::31                      0                       # What read queue length does an incoming req see
system.mem_ctrls.wrQLenPdf::0                       1                       # What write queue length does an incoming req see
system.mem_ctrls.wrQLenPdf::1                       1                       # What write queue length does an incoming req see
system.mem_ctrls.wrQLenPdf::2                       1                       # What write queue length does an incoming req see
system.mem_ctrls.wrQLenPdf::3                       1                       # What write queue length does an incoming req see
system.mem_ctrls.wrQLenPdf::4                       1                       # What write queue length does an incoming req see
system.mem_ctrls.wrQLenPdf::5                       1                       # What write queue length does an incoming req see
system.mem_ctrls.wrQLenPdf::6                       1                       # What write queue length does an incoming req see
system.mem_ctrls.wrQLenPdf::7                       1                       # What write queue length does an incoming req see
system.mem_ctrls.wrQLenPdf::8                       1                       # What write queue length does an incoming req see
system.mem_ctrls.wrQLenPdf::9                       1                       # What write queue length does an incoming req see
system.mem_ctrls.wrQLenPdf::10                      1                       # What write queue length does an incoming req see
system.mem_ctrls.wrQLenPdf::11                      1                       # What write queue length does an incoming req see
system.mem_ctrls.wrQLenPdf::12                      1                       # What write queue length does an incoming req see
system.mem_ctrls.wrQLenPdf::13                      1                       # What write queue length does an incoming req see
system.mem_ctrls.wrQLenPdf::14                      1                       # What write queue length does an incoming req see
system.mem_ctrls.wrQLenPdf::15                  16177                       # What write queue length does an incoming req see
system.mem_ctrls.wrQLenPdf::16                  17397                       # What write queue length does an incoming req see
system.mem_ctrls.wrQLenPdf::17                  28793                       # What write queue length does an incoming req see
system.mem_ctrls.wrQLenPdf::18                  28788                       # What write queue length does an incoming req see
system.mem_ctrls.wrQLenPdf::19                  28791                       # What write queue length does an incoming req see
system.mem_ctrls.wrQLenPdf::20                  28789                       # What write queue length does an incoming req see
system.mem_ctrls.wrQLenPdf::21                  28788                       # What write queue length does an incoming req see
system.mem_ctrls.wrQLenPdf::22                  28788                       # What write queue length does an incoming req see
system.mem_ctrls.wrQLenPdf::23                  28788                       # What write queue length does an incoming req see
system.mem_ctrls.wrQLenPdf::24                  28788                       # What write queue length does an incoming req see
system.mem_ctrls.wrQLenPdf::25                  28793                       # What write queue length does an incoming req see
system.mem_ctrls.wrQLenPdf::26                  28788                       # What write queue length does an incoming req see
system.mem_ctrls.wrQLenPdf::27                  28788                       # What write queue length does an incoming req see
system.mem_ctrls.wrQLenPdf::28                  28791                       # What write queue length does an incoming req see
system.mem_ctrls.wrQLenPdf::29                  28802                       # What write queue length does an incoming req see
system.mem_ctrls.wrQLenPdf::30                  28792                       # What write queue length does an incoming req see
system.mem_ctrls.wrQLenPdf::31                  28788                       # What write queue length does an incoming req see
system.mem_ctrls.wrQLenPdf::32                  28789                       # What write queue length does an incoming req see
system.mem_ctrls.wrQLenPdf::33                      0                       # What write queue length does an incoming req see
system.mem_ctrls.wrQLenPdf::34                      0                       # What write queue length does an incoming req see
system.mem_ctrls.wrQLenPdf::35                      0                       # What write queue length does an incoming req see
system.mem_ctrls.wrQLenPdf::36                      0                       # What write queue length does an incoming req see
system.mem_ctrls.wrQLenPdf::37                      0                       # What write queue length does an incoming req see
system.mem_ctrls.wrQLenPdf::38                      0                       # What write queue length does an incoming req see
system.mem_ctrls.wrQLenPdf::39                      0                       # What write queue length does an incoming req see
system.mem_ctrls.wrQLenPdf::40                      0                       # What write queue length does an incoming req see
system.mem_ctrls.wrQLenPdf::41                      0                       # What write queue length does an incoming req see
system.mem_ctrls.wrQLenPdf::42                      0                       # What write queue length does an incoming req see
system.mem_ctrls.wrQLenPdf::43                      0                       # What write queue length does an incoming req see
system.mem_ctrls.wrQLenPdf::44                      0                       # What write queue length does an incoming req see
system.mem_ctrls.wrQLenPdf::45                      0                       # What write queue length does an incoming req see
system.mem_ctrls.wrQLenPdf::46                      0                       # What write queue length does an incoming req see
system.mem_ctrls.wrQLenPdf::47                      0                       # What write queue length does an incoming req see
system.mem_ctrls.wrQLenPdf::48                      0                       # What write queue length does an incoming req see
system.mem_ctrls.wrQLenPdf::49                      0                       # What write queue length does an incoming req see
system.mem_ctrls.wrQLenPdf::50                      0                       # What write queue length does an incoming req see
system.mem_ctrls.wrQLenPdf::51                      0                       # What write queue length does an incoming req see
system.mem_ctrls.wrQLenPdf::52                      0                       # What write queue length does an incoming req see
system.mem_ctrls.wrQLenPdf::53                      0                       # What write queue length does an incoming req see
system.mem_ctrls.wrQLenPdf::54                      0                       # What write queue length does an incoming req see
system.mem_ctrls.wrQLenPdf::55                      0                       # What write queue length does an incoming req see
system.mem_ctrls.wrQLenPdf::56                      0                       # What write queue length does an incoming req see
system.mem_ctrls.wrQLenPdf::57                      0                       # What write queue length does an incoming req see
system.mem_ctrls.wrQLenPdf::58                      0                       # What write queue length does an incoming req see
system.mem_ctrls.wrQLenPdf::59                      0                       # What write queue length does an incoming req see
system.mem_ctrls.wrQLenPdf::60                      0                       # What write queue length does an incoming req see
system.mem_ctrls.wrQLenPdf::61                      0                       # What write queue length does an incoming req see
system.mem_ctrls.wrQLenPdf::62                      0                       # What write queue length does an incoming req see
system.mem_ctrls.wrQLenPdf::63                      0                       # What write queue length does an incoming req see
system.mem_ctrls.bytesPerActivate::samples       749810                       # Bytes accessed per row activation
system.mem_ctrls.bytesPerActivate::mean    126.358197                       # Bytes accessed per row activation
system.mem_ctrls.bytesPerActivate::gmean    91.247949                       # Bytes accessed per row activation
system.mem_ctrls.bytesPerActivate::stdev   162.345695                       # Bytes accessed per row activation
system.mem_ctrls.bytesPerActivate::0-127       531008     70.82%     70.82% # Bytes accessed per row activation
system.mem_ctrls.bytesPerActivate::128-255       140261     18.71%     89.53% # Bytes accessed per row activation
system.mem_ctrls.bytesPerActivate::256-383        30016      4.00%     93.53% # Bytes accessed per row activation
system.mem_ctrls.bytesPerActivate::384-511        11722      1.56%     95.09% # Bytes accessed per row activation
system.mem_ctrls.bytesPerActivate::512-639        16367      2.18%     97.27% # Bytes accessed per row activation
system.mem_ctrls.bytesPerActivate::640-767         4774      0.64%     97.91% # Bytes accessed per row activation
system.mem_ctrls.bytesPerActivate::768-895         1755      0.23%     98.15% # Bytes accessed per row activation
system.mem_ctrls.bytesPerActivate::896-1023         1086      0.14%     98.29% # Bytes accessed per row activation
system.mem_ctrls.bytesPerActivate::1024-1151        12821      1.71%    100.00% # Bytes accessed per row activation
system.mem_ctrls.bytesPerActivate::total       749810                       # Bytes accessed per row activation
system.mem_ctrls.rdPerTurnAround::samples        28788                       # Reads before turning the bus around for writes
system.mem_ctrls.rdPerTurnAround::mean      33.981798                       # Reads before turning the bus around for writes
system.mem_ctrls.rdPerTurnAround::gmean     26.506434                       # Reads before turning the bus around for writes
system.mem_ctrls.rdPerTurnAround::stdev    303.498343                       # Reads before turning the bus around for writes
system.mem_ctrls.rdPerTurnAround::0-2047        28772     99.94%     99.94% # Reads before turning the bus around for writes
system.mem_ctrls.rdPerTurnAround::2048-4095            8      0.03%     99.97% # Reads before turning the bus around for writes
system.mem_ctrls.rdPerTurnAround::4096-6143            5      0.02%     99.99% # Reads before turning the bus around for writes
system.mem_ctrls.rdPerTurnAround::8192-10239            1      0.00%     99.99% # Reads before turning the bus around for writes
system.mem_ctrls.rdPerTurnAround::10240-12287            1      0.00%    100.00% # Reads before turning the bus around for writes
system.mem_ctrls.rdPerTurnAround::47104-49151            1      0.00%    100.00% # Reads before turning the bus around for writes
system.mem_ctrls.rdPerTurnAround::total         28788                       # Reads before turning the bus around for writes
system.mem_ctrls.wrPerTurnAround::samples        28788                       # Writes before turning the bus around for reads
system.mem_ctrls.wrPerTurnAround::mean      17.167466                       # Writes before turning the bus around for reads
system.mem_ctrls.wrPerTurnAround::gmean     17.139936                       # Writes before turning the bus around for reads
system.mem_ctrls.wrPerTurnAround::stdev      0.965728                       # Writes before turning the bus around for reads
system.mem_ctrls.wrPerTurnAround::16            11386     39.55%     39.55% # Writes before turning the bus around for reads
system.mem_ctrls.wrPerTurnAround::17             1226      4.26%     43.81% # Writes before turning the bus around for reads
system.mem_ctrls.wrPerTurnAround::18            16145     56.08%     99.89% # Writes before turning the bus around for reads
system.mem_ctrls.wrPerTurnAround::19               31      0.11%    100.00% # Writes before turning the bus around for reads
system.mem_ctrls.wrPerTurnAround::total         28788                       # Writes before turning the bus around for reads
system.mem_ctrls.totQLat                  26056168250                       # Total ticks spent queuing
system.mem_ctrls.totMemAccLat             44546837000                       # Total ticks spent from burst creation until serviced by the DRAM
system.mem_ctrls.totBusLat                 4930845000                       # Total ticks spent in databus transfers
system.mem_ctrls.avgQLat                     26421.61                       # Average queueing delay per DRAM burst
system.mem_ctrls.avgBusLat                    5000.00                       # Average bus latency per DRAM burst
system.mem_ctrls.avgMemAccLat                45171.61                       # Average memory access latency per DRAM burst
system.mem_ctrls.avgRdBW                        57.66                       # Average DRAM read bandwidth in MiByte/s
system.mem_ctrls.avgWrBW                        28.89                       # Average achieved write bandwidth in MiByte/s
system.mem_ctrls.avgRdBWSys                     28.84                       # Average system read bandwidth in MiByte/s
system.mem_ctrls.avgWrBWSys                     16.36                       # Average system write bandwidth in MiByte/s
system.mem_ctrls.peakBW                      12800.00                       # Theoretical peak bandwidth in MiByte/s
system.mem_ctrls.busUtil                         0.68                       # Data bus utilization in percentage
system.mem_ctrls.busUtilRead                     0.45                       # Data bus utilization in percentage for reads
system.mem_ctrls.busUtilWrite                    0.23                       # Data bus utilization in percentage for writes
system.mem_ctrls.avgRdQLen                       1.00                       # Average read queue length when enqueuing
system.mem_ctrls.avgWrQLen                      22.24                       # Average write queue length when enqueuing
system.mem_ctrls.readRowHits                   530871                       # Number of row buffer hits during reads
system.mem_ctrls.writeRowHits                  199704                       # Number of row buffer hits during writes
system.mem_ctrls.readRowHitRate                 53.83                       # Row buffer hit rate for reads
system.mem_ctrls.writeRowHitRate                40.41                       # Row buffer hit rate for writes
system.mem_ctrls.avgGap                     708039.03                       # Average gap between requests
system.mem_ctrls.pageHitRate                    49.35                       # Row buffer hit rate, read and write combined
system.mem_ctrls_0.actEnergy               2649104220                       # Energy for activate commands per rank (pJ)
system.mem_ctrls_0.preEnergy               1408028490                       # Energy for precharge commands per rank (pJ)
system.mem_ctrls_0.readEnergy              3509716980                       # Energy for read commands per rank (pJ)
system.mem_ctrls_0.writeEnergy             1267144560                       # Energy for write commands per rank (pJ)
system.mem_ctrls_0.refreshEnergy         42264490320.000008                       # Energy for refresh commands per rank (pJ)
system.mem_ctrls_0.actBackEnergy          24869833020                       # Energy for active background per rank (pJ)
system.mem_ctrls_0.preBackEnergy           1583445600                       # Energy for precharge background per rank (pJ)
system.mem_ctrls_0.actPowerDownEnergy    143605802280                       # Energy for active power-down per rank (pJ)
system.mem_ctrls_0.prePowerDownEnergy     42832897440                       # Energy for precharge power-down per rank (pJ)
system.mem_ctrls_0.selfRefreshEnergy     150125967765                       # Energy for self refresh per rank (pJ)
system.mem_ctrls_0.totalEnergy           414124708065                       # Total energy per rank (pJ)
system.mem_ctrls_0.averagePower            378.302569                       # Core power per rank (mW)
system.mem_ctrls_0.totalIdleTime         1036007509000                       # Total Idle time Per DRAM Rank
system.mem_ctrls_0.memoryStateTime::IDLE   2222417750                       # Time in different power states
system.mem_ctrls_0.memoryStateTime::REF   17920854000                       # Time in different power states
system.mem_ctrls_0.memoryStateTime::SREF 609541628250                       # Time in different power states
system.mem_ctrls_0.memoryStateTime::PRE_PDN 111542060000                       # Time in different power states
system.mem_ctrls_0.memoryStateTime::ACT   38538315750                       # Time in different power states
system.mem_ctrls_0.memoryStateTime::ACT_PDN 314926491750                       # Time in different power states
system.mem_ctrls_1.actEnergy               2704546320                       # Energy for activate commands per rank (pJ)
system.mem_ctrls_1.preEnergy               1437500460                       # Energy for precharge commands per rank (pJ)
system.mem_ctrls_1.readEnergy              3531529680                       # Energy for read commands per rank (pJ)
system.mem_ctrls_1.writeEnergy             1312668180                       # Energy for write commands per rank (pJ)
system.mem_ctrls_1.refreshEnergy         42233143680.000008                       # Energy for refresh commands per rank (pJ)
system.mem_ctrls_1.actBackEnergy          25013600130                       # Energy for active background per rank (pJ)
system.mem_ctrls_1.preBackEnergy           1587579360                       # Energy for precharge background per rank (pJ)
system.mem_ctrls_1.actPowerDownEnergy    142567199580                       # Energy for active power-down per rank (pJ)
system.mem_ctrls_1.prePowerDownEnergy     43167727200                       # Energy for precharge power-down per rank (pJ)
system.mem_ctrls_1.selfRefreshEnergy     150437725905                       # Energy for self refresh per rank (pJ)
system.mem_ctrls_1.totalEnergy           414004015875                       # Total energy per rank (pJ)
system.mem_ctrls_1.averagePower            378.192315                       # Core power per rank (mW)
system.mem_ctrls_1.totalIdleTime         1035641984250                       # Total Idle time Per DRAM Rank
system.mem_ctrls_1.memoryStateTime::IDLE   2228949750                       # Time in different power states
system.mem_ctrls_1.memoryStateTime::REF   17908260000                       # Time in different power states
system.mem_ctrls_1.memoryStateTime::SREF 610615697750                       # Time in different power states
system.mem_ctrls_1.memoryStateTime::PRE_PDN 112415421000                       # Time in different power states
system.mem_ctrls_1.memoryStateTime::ACT   38874358500                       # Time in different power states
system.mem_ctrls_1.memoryStateTime::ACT_PDN 312649080500                       # Time in different power states
system.pwrStateResidencyTicks::UNDEFINED 1094691767500                       # Cumulative time (in ticks) in various power states
system.cpu_voltage_domain.voltage                   1                       # Voltage in Volts
system.cpu_clk_domain.clock                       500                       # Clock period in ticks
system.cpu.dtb.walker.pwrStateResidencyTicks::UNDEFINED 1094691767500                       # Cumulative time (in ticks) in various power states
system.cpu.apic_clk_domain.clock                 8000                       # Clock period in ticks
system.cpu.interrupts.pwrStateResidencyTicks::UNDEFINED 1094691767500                       # Cumulative time (in ticks) in various power states
system.cpu.itb.walker.pwrStateResidencyTicks::UNDEFINED 1094691767500                       # Cumulative time (in ticks) in various power states
system.cpu.workload.num_syscalls                   86                       # Number of system calls
system.cpu.pwrStateResidencyTicks::ON    1094691767500                       # Cumulative time (in ticks) in various power states
system.cpu.numCycles                       2189383535                       # number of cpu cycles simulated
system.cpu.numWorkItemsStarted                      0                       # number of work items this cpu started
system.cpu.numWorkItemsCompleted                    0                       # number of work items this cpu completed
system.cpu.committedInsts                   500000001                       # Number of instructions committed
system.cpu.committedOps                     730450447                       # Number of ops (including micro ops) committed
system.cpu.num_int_alu_accesses             729688906                       # Number of integer alu accesses
system.cpu.num_fp_alu_accesses                    663                       # Number of float alu accesses
system.cpu.num_func_calls                     1453961                       # number of times a function call or return occured
system.cpu.num_conditional_control_insts     31770496                       # number of instructions that are conditional controls
system.cpu.num_int_insts                    729688906                       # number of integer instructions
system.cpu.num_fp_insts                           663                       # number of float instructions
system.cpu.num_int_register_reads          1698743411                       # number of times the integer registers were read
system.cpu.num_int_register_writes          621892950                       # number of times the integer registers were written
system.cpu.num_fp_register_reads                 1009                       # number of times the floating registers were read
system.cpu.num_fp_register_writes                 429                       # number of times the floating registers were written
system.cpu.num_cc_register_reads            180840559                       # number of times the CC registers were read
system.cpu.num_cc_register_writes           276245121                       # number of times the CC registers were written
system.cpu.num_mem_refs                     295985461                       # number of memory refs
system.cpu.num_load_insts                   225946751                       # Number of load instructions
system.cpu.num_store_insts                   70038710                       # Number of store instructions
system.cpu.num_idle_cycles                          0                       # Number of idle cycles
system.cpu.num_busy_cycles                 2189383535                       # Number of busy cycles
system.cpu.not_idle_fraction                        1                       # Percentage of non-idle cycles
system.cpu.idle_fraction                            0                       # Percentage of idle cycles
system.cpu.Branches                          37843296                       # Number of branches fetched
system.cpu.op_class::No_OpClass                 94740      0.01%      0.01% # Class of executed instruction
system.cpu.op_class::IntAlu                 434349067     59.46%     59.48% # Class of executed instruction
system.cpu.op_class::IntMult                    20662      0.00%     59.48% # Class of executed instruction
system.cpu.op_class::IntDiv                       119      0.00%     59.48% # Class of executed instruction
system.cpu.op_class::FloatAdd                     398      0.00%     59.48% # Class of executed instruction
system.cpu.op_class::FloatCmp                       0      0.00%     59.48% # Class of executed instruction
system.cpu.op_class::FloatCvt                       0      0.00%     59.48% # Class of executed instruction
system.cpu.op_class::FloatMult                      0      0.00%     59.48% # Class of executed instruction
system.cpu.op_class::FloatDiv                       0      0.00%     59.48% # Class of executed instruction
system.cpu.op_class::FloatSqrt                      0      0.00%     59.48% # Class of executed instruction
system.cpu.op_class::SimdAdd                        0      0.00%     59.48% # Class of executed instruction
system.cpu.op_class::SimdAddAcc                     0      0.00%     59.48% # Class of executed instruction
system.cpu.op_class::SimdAlu                        0      0.00%     59.48% # Class of executed instruction
system.cpu.op_class::SimdCmp                        0      0.00%     59.48% # Class of executed instruction
system.cpu.op_class::SimdCvt                        0      0.00%     59.48% # Class of executed instruction
system.cpu.op_class::SimdMisc                       0      0.00%     59.48% # Class of executed instruction
system.cpu.op_class::SimdMult                       0      0.00%     59.48% # Class of executed instruction
system.cpu.op_class::SimdMultAcc                    0      0.00%     59.48% # Class of executed instruction
system.cpu.op_class::SimdShift                      0      0.00%     59.48% # Class of executed instruction
system.cpu.op_class::SimdShiftAcc                   0      0.00%     59.48% # Class of executed instruction
system.cpu.op_class::SimdSqrt                       0      0.00%     59.48% # Class of executed instruction
system.cpu.op_class::SimdFloatAdd                   0      0.00%     59.48% # Class of executed instruction
system.cpu.op_class::SimdFloatAlu                   0      0.00%     59.48% # Class of executed instruction
system.cpu.op_class::SimdFloatCmp                   0      0.00%     59.48% # Class of executed instruction
system.cpu.op_class::SimdFloatCvt                   0      0.00%     59.48% # Class of executed instruction
system.cpu.op_class::SimdFloatDiv                   0      0.00%     59.48% # Class of executed instruction
system.cpu.op_class::SimdFloatMisc                  0      0.00%     59.48% # Class of executed instruction
system.cpu.op_class::SimdFloatMult                  0      0.00%     59.48% # Class of executed instruction
system.cpu.op_class::SimdFloatMultAcc               0      0.00%     59.48% # Class of executed instruction
system.cpu.op_class::SimdFloatSqrt                  0      0.00%     59.48% # Class of executed instruction
system.cpu.op_class::MemRead                225946751     30.93%     90.41% # Class of executed instruction
system.cpu.op_class::MemWrite                70038710      9.59%    100.00% # Class of executed instruction
system.cpu.op_class::IprAccess                      0      0.00%    100.00% # Class of executed instruction
system.cpu.op_class::InstPrefetch                   0      0.00%    100.00% # Class of executed instruction
system.cpu.op_class::total                  730450447                       # Class of executed instruction
system.cpu.dcache.tags.pwrStateResidencyTicks::UNDEFINED 1094691767500                       # Cumulative time (in ticks) in various power states
system.cpu.dcache.tags.replacements           2350865                       # number of replacements
system.cpu.dcache.tags.tagsinuse          4083.080240                       # Cycle average of tags in use
system.cpu.dcache.tags.total_refs           293630513                       # Total number of references to valid blocks.
system.cpu.dcache.tags.sampled_refs           2354961                       # Sample count of references to valid blocks.
system.cpu.dcache.tags.avg_refs            124.685935                       # Average number of references to valid blocks.
system.cpu.dcache.tags.warmup_cycle        3963976500                       # Cycle when the warmup percentage was hit.
system.cpu.dcache.tags.occ_blocks::cpu.data  4083.080240                       # Average occupied blocks per requestor
system.cpu.dcache.tags.occ_percent::cpu.data     0.996846                       # Average percentage of cache occupancy
system.cpu.dcache.tags.occ_percent::total     0.996846                       # Average percentage of cache occupancy
system.cpu.dcache.tags.occ_task_id_blocks::1024         4096                       # Occupied blocks per task id
system.cpu.dcache.tags.age_task_id_blocks_1024::0            1                       # Occupied blocks per task id
system.cpu.dcache.tags.age_task_id_blocks_1024::1            3                       # Occupied blocks per task id
system.cpu.dcache.tags.age_task_id_blocks_1024::2           32                       # Occupied blocks per task id
system.cpu.dcache.tags.age_task_id_blocks_1024::3         3116                       # Occupied blocks per task id
system.cpu.dcache.tags.age_task_id_blocks_1024::4          944                       # Occupied blocks per task id
system.cpu.dcache.tags.occ_task_id_percent::1024            1                       # Percentage of cache occupancy per task id
system.cpu.dcache.tags.tag_accesses        1186296857                       # Number of tag accesses
system.cpu.dcache.tags.data_accesses       1186296857                       # Number of data accesses
system.cpu.dcache.pwrStateResidencyTicks::UNDEFINED 1094691767500                       # Cumulative time (in ticks) in various power states
system.cpu.dcache.ReadReq_hits::cpu.data    224294203                       # number of ReadReq hits
system.cpu.dcache.ReadReq_hits::total       224294203                       # number of ReadReq hits
system.cpu.dcache.WriteReq_hits::cpu.data     69336310                       # number of WriteReq hits
system.cpu.dcache.WriteReq_hits::total       69336310                       # number of WriteReq hits
system.cpu.dcache.demand_hits::cpu.data     293630513                       # number of demand (read+write) hits
system.cpu.dcache.demand_hits::total        293630513                       # number of demand (read+write) hits
system.cpu.dcache.overall_hits::cpu.data    293630513                       # number of overall hits
system.cpu.dcache.overall_hits::total       293630513                       # number of overall hits
system.cpu.dcache.ReadReq_misses::cpu.data      1636175                       # number of ReadReq misses
system.cpu.dcache.ReadReq_misses::total       1636175                       # number of ReadReq misses
system.cpu.dcache.WriteReq_misses::cpu.data       702402                       # number of WriteReq misses
system.cpu.dcache.WriteReq_misses::total       702402                       # number of WriteReq misses
system.cpu.dcache.SoftPFReq_misses::cpu.data        16384                       # number of SoftPFReq misses
system.cpu.dcache.SoftPFReq_misses::total        16384                       # number of SoftPFReq misses
system.cpu.dcache.demand_misses::cpu.data      2338577                       # number of demand (read+write) misses
system.cpu.dcache.demand_misses::total        2338577                       # number of demand (read+write) misses
system.cpu.dcache.overall_misses::cpu.data      2354961                       # number of overall misses
system.cpu.dcache.overall_misses::total       2354961                       # number of overall misses
system.cpu.dcache.ReadReq_miss_latency::cpu.data  64814710500                       # number of ReadReq miss cycles
system.cpu.dcache.ReadReq_miss_latency::total  64814710500                       # number of ReadReq miss cycles
system.cpu.dcache.WriteReq_miss_latency::cpu.data  48669014500                       # number of WriteReq miss cycles
system.cpu.dcache.WriteReq_miss_latency::total  48669014500                       # number of WriteReq miss cycles
system.cpu.dcache.demand_miss_latency::cpu.data 113483725000                       # number of demand (read+write) miss cycles
system.cpu.dcache.demand_miss_latency::total 113483725000                       # number of demand (read+write) miss cycles
system.cpu.dcache.overall_miss_latency::cpu.data 113483725000                       # number of overall miss cycles
system.cpu.dcache.overall_miss_latency::total 113483725000                       # number of overall miss cycles
system.cpu.dcache.ReadReq_accesses::cpu.data    225930378                       # number of ReadReq accesses(hits+misses)
system.cpu.dcache.ReadReq_accesses::total    225930378                       # number of ReadReq accesses(hits+misses)
system.cpu.dcache.WriteReq_accesses::cpu.data     70038712                       # number of WriteReq accesses(hits+misses)
system.cpu.dcache.WriteReq_accesses::total     70038712                       # number of WriteReq accesses(hits+misses)
system.cpu.dcache.SoftPFReq_accesses::cpu.data        16384                       # number of SoftPFReq accesses(hits+misses)
system.cpu.dcache.SoftPFReq_accesses::total        16384                       # number of SoftPFReq accesses(hits+misses)
system.cpu.dcache.demand_accesses::cpu.data    295969090                       # number of demand (read+write) accesses
system.cpu.dcache.demand_accesses::total    295969090                       # number of demand (read+write) accesses
system.cpu.dcache.overall_accesses::cpu.data    295985474                       # number of overall (read+write) accesses
system.cpu.dcache.overall_accesses::total    295985474                       # number of overall (read+write) accesses
system.cpu.dcache.ReadReq_miss_rate::cpu.data     0.007242                       # miss rate for ReadReq accesses
system.cpu.dcache.ReadReq_miss_rate::total     0.007242                       # miss rate for ReadReq accesses
system.cpu.dcache.WriteReq_miss_rate::cpu.data     0.010029                       # miss rate for WriteReq accesses
system.cpu.dcache.WriteReq_miss_rate::total     0.010029                       # miss rate for WriteReq accesses
system.cpu.dcache.SoftPFReq_miss_rate::cpu.data            1                       # miss rate for SoftPFReq accesses
system.cpu.dcache.SoftPFReq_miss_rate::total            1                       # miss rate for SoftPFReq accesses
system.cpu.dcache.demand_miss_rate::cpu.data     0.007901                       # miss rate for demand accesses
system.cpu.dcache.demand_miss_rate::total     0.007901                       # miss rate for demand accesses
system.cpu.dcache.overall_miss_rate::cpu.data     0.007956                       # miss rate for overall accesses
system.cpu.dcache.overall_miss_rate::total     0.007956                       # miss rate for overall accesses
system.cpu.dcache.ReadReq_avg_miss_latency::cpu.data 39613.556313                       # average ReadReq miss latency
system.cpu.dcache.ReadReq_avg_miss_latency::total 39613.556313                       # average ReadReq miss latency
system.cpu.dcache.WriteReq_avg_miss_latency::cpu.data 69289.401938                       # average WriteReq miss latency
system.cpu.dcache.WriteReq_avg_miss_latency::total 69289.401938                       # average WriteReq miss latency
system.cpu.dcache.demand_avg_miss_latency::cpu.data 48526.828494                       # average overall miss latency
system.cpu.dcache.demand_avg_miss_latency::total 48526.828494                       # average overall miss latency
system.cpu.dcache.overall_avg_miss_latency::cpu.data 48189.216297                       # average overall miss latency
system.cpu.dcache.overall_avg_miss_latency::total 48189.216297                       # average overall miss latency
system.cpu.dcache.blocked_cycles::no_mshrs         3005                       # number of cycles access was blocked
system.cpu.dcache.blocked_cycles::no_targets            0                       # number of cycles access was blocked
system.cpu.dcache.blocked::no_mshrs                15                       # number of cycles access was blocked
system.cpu.dcache.blocked::no_targets               0                       # number of cycles access was blocked
system.cpu.dcache.avg_blocked_cycles::no_mshrs   200.333333                       # average number of cycles each access was blocked
system.cpu.dcache.avg_blocked_cycles::no_targets          nan                       # average number of cycles each access was blocked
system.cpu.dcache.writebacks::writebacks      1072106                       # number of writebacks
system.cpu.dcache.writebacks::total           1072106                       # number of writebacks
system.cpu.dcache.ReadReq_mshr_misses::cpu.data      1636175                       # number of ReadReq MSHR misses
system.cpu.dcache.ReadReq_mshr_misses::total      1636175                       # number of ReadReq MSHR misses
system.cpu.dcache.WriteReq_mshr_misses::cpu.data       702402                       # number of WriteReq MSHR misses
system.cpu.dcache.WriteReq_mshr_misses::total       702402                       # number of WriteReq MSHR misses
system.cpu.dcache.SoftPFReq_mshr_misses::cpu.data        16384                       # number of SoftPFReq MSHR misses
system.cpu.dcache.SoftPFReq_mshr_misses::total        16384                       # number of SoftPFReq MSHR misses
system.cpu.dcache.demand_mshr_misses::cpu.data      2338577                       # number of demand (read+write) MSHR misses
system.cpu.dcache.demand_mshr_misses::total      2338577                       # number of demand (read+write) MSHR misses
system.cpu.dcache.overall_mshr_misses::cpu.data      2354961                       # number of overall MSHR misses
system.cpu.dcache.overall_mshr_misses::total      2354961                       # number of overall MSHR misses
system.cpu.dcache.ReadReq_mshr_miss_latency::cpu.data  63178535500                       # number of ReadReq MSHR miss cycles
system.cpu.dcache.ReadReq_mshr_miss_latency::total  63178535500                       # number of ReadReq MSHR miss cycles
system.cpu.dcache.WriteReq_mshr_miss_latency::cpu.data  47966612500                       # number of WriteReq MSHR miss cycles
system.cpu.dcache.WriteReq_mshr_miss_latency::total  47966612500                       # number of WriteReq MSHR miss cycles
system.cpu.dcache.SoftPFReq_mshr_miss_latency::cpu.data   1370968000                       # number of SoftPFReq MSHR miss cycles
system.cpu.dcache.SoftPFReq_mshr_miss_latency::total   1370968000                       # number of SoftPFReq MSHR miss cycles
system.cpu.dcache.demand_mshr_miss_latency::cpu.data 111145148000                       # number of demand (read+write) MSHR miss cycles
system.cpu.dcache.demand_mshr_miss_latency::total 111145148000                       # number of demand (read+write) MSHR miss cycles
system.cpu.dcache.overall_mshr_miss_latency::cpu.data 112516116000                       # number of overall MSHR miss cycles
system.cpu.dcache.overall_mshr_miss_latency::total 112516116000                       # number of overall MSHR miss cycles
system.cpu.dcache.ReadReq_mshr_miss_rate::cpu.data     0.007242                       # mshr miss rate for ReadReq accesses
system.cpu.dcache.ReadReq_mshr_miss_rate::total     0.007242                       # mshr miss rate for ReadReq accesses
system.cpu.dcache.WriteReq_mshr_miss_rate::cpu.data     0.010029                       # mshr miss rate for WriteReq accesses
system.cpu.dcache.WriteReq_mshr_miss_rate::total     0.010029                       # mshr miss rate for WriteReq accesses
system.cpu.dcache.SoftPFReq_mshr_miss_rate::cpu.data            1                       # mshr miss rate for SoftPFReq accesses
system.cpu.dcache.SoftPFReq_mshr_miss_rate::total            1                       # mshr miss rate for SoftPFReq accesses
system.cpu.dcache.demand_mshr_miss_rate::cpu.data     0.007901                       # mshr miss rate for demand accesses
system.cpu.dcache.demand_mshr_miss_rate::total     0.007901                       # mshr miss rate for demand accesses
system.cpu.dcache.overall_mshr_miss_rate::cpu.data     0.007956                       # mshr miss rate for overall accesses
system.cpu.dcache.overall_mshr_miss_rate::total     0.007956                       # mshr miss rate for overall accesses
system.cpu.dcache.ReadReq_avg_mshr_miss_latency::cpu.data 38613.556313                       # average ReadReq mshr miss latency
system.cpu.dcache.ReadReq_avg_mshr_miss_latency::total 38613.556313                       # average ReadReq mshr miss latency
system.cpu.dcache.WriteReq_avg_mshr_miss_latency::cpu.data 68289.401938                       # average WriteReq mshr miss latency
system.cpu.dcache.WriteReq_avg_mshr_miss_latency::total 68289.401938                       # average WriteReq mshr miss latency
system.cpu.dcache.SoftPFReq_avg_mshr_miss_latency::cpu.data 83677.246094                       # average SoftPFReq mshr miss latency
system.cpu.dcache.SoftPFReq_avg_mshr_miss_latency::total 83677.246094                       # average SoftPFReq mshr miss latency
system.cpu.dcache.demand_avg_mshr_miss_latency::cpu.data 47526.828494                       # average overall mshr miss latency
system.cpu.dcache.demand_avg_mshr_miss_latency::total 47526.828494                       # average overall mshr miss latency
system.cpu.dcache.overall_avg_mshr_miss_latency::cpu.data 47778.335183                       # average overall mshr miss latency
system.cpu.dcache.overall_avg_mshr_miss_latency::total 47778.335183                       # average overall mshr miss latency
system.cpu.dtb_walker_cache.tags.pwrStateResidencyTicks::UNDEFINED 1094691767500                       # Cumulative time (in ticks) in various power states
system.cpu.dtb_walker_cache.tags.replacements            0                       # number of replacements
system.cpu.dtb_walker_cache.tags.tagsinuse            0                       # Cycle average of tags in use
system.cpu.dtb_walker_cache.tags.total_refs            0                       # Total number of references to valid blocks.
system.cpu.dtb_walker_cache.tags.sampled_refs            0                       # Sample count of references to valid blocks.
system.cpu.dtb_walker_cache.tags.avg_refs          nan                       # Average number of references to valid blocks.
system.cpu.dtb_walker_cache.tags.warmup_cycle            0                       # Cycle when the warmup percentage was hit.
system.cpu.dtb_walker_cache.tags.tag_accesses            0                       # Number of tag accesses
system.cpu.dtb_walker_cache.tags.data_accesses            0                       # Number of data accesses
system.cpu.dtb_walker_cache.pwrStateResidencyTicks::UNDEFINED 1094691767500                       # Cumulative time (in ticks) in various power states
system.cpu.dtb_walker_cache.blocked_cycles::no_mshrs            0                       # number of cycles access was blocked
system.cpu.dtb_walker_cache.blocked_cycles::no_targets            0                       # number of cycles access was blocked
system.cpu.dtb_walker_cache.blocked::no_mshrs            0                       # number of cycles access was blocked
system.cpu.dtb_walker_cache.blocked::no_targets            0                       # number of cycles access was blocked
system.cpu.dtb_walker_cache.avg_blocked_cycles::no_mshrs          nan                       # average number of cycles each access was blocked
system.cpu.dtb_walker_cache.avg_blocked_cycles::no_targets          nan                       # average number of cycles each access was blocked
system.cpu.icache.tags.pwrStateResidencyTicks::UNDEFINED 1094691767500                       # Cumulative time (in ticks) in various power states
system.cpu.icache.tags.replacements               191                       # number of replacements
system.cpu.icache.tags.tagsinuse          1146.827334                       # Cycle average of tags in use
system.cpu.icache.tags.total_refs           687396052                       # Total number of references to valid blocks.
system.cpu.icache.tags.sampled_refs              1810                       # Sample count of references to valid blocks.
system.cpu.icache.tags.avg_refs          379776.824309                       # Average number of references to valid blocks.
system.cpu.icache.tags.warmup_cycle                 0                       # Cycle when the warmup percentage was hit.
system.cpu.icache.tags.occ_blocks::cpu.inst  1146.827334                       # Average occupied blocks per requestor
system.cpu.icache.tags.occ_percent::cpu.inst     0.559974                       # Average percentage of cache occupancy
system.cpu.icache.tags.occ_percent::total     0.559974                       # Average percentage of cache occupancy
system.cpu.icache.tags.occ_task_id_blocks::1024         1619                       # Occupied blocks per task id
system.cpu.icache.tags.age_task_id_blocks_1024::1           14                       # Occupied blocks per task id
system.cpu.icache.tags.age_task_id_blocks_1024::3           50                       # Occupied blocks per task id
system.cpu.icache.tags.age_task_id_blocks_1024::4         1555                       # Occupied blocks per task id
system.cpu.icache.tags.occ_task_id_percent::1024     0.790527                       # Percentage of cache occupancy per task id
system.cpu.icache.tags.tag_accesses        2749593258                       # Number of tag accesses
system.cpu.icache.tags.data_accesses       2749593258                       # Number of data accesses
system.cpu.icache.pwrStateResidencyTicks::UNDEFINED 1094691767500                       # Cumulative time (in ticks) in various power states
system.cpu.icache.ReadReq_hits::cpu.inst    687396052                       # number of ReadReq hits
system.cpu.icache.ReadReq_hits::total       687396052                       # number of ReadReq hits
system.cpu.icache.demand_hits::cpu.inst     687396052                       # number of demand (read+write) hits
system.cpu.icache.demand_hits::total        687396052                       # number of demand (read+write) hits
system.cpu.icache.overall_hits::cpu.inst    687396052                       # number of overall hits
system.cpu.icache.overall_hits::total       687396052                       # number of overall hits
system.cpu.icache.ReadReq_misses::cpu.inst         1810                       # number of ReadReq misses
system.cpu.icache.ReadReq_misses::total          1810                       # number of ReadReq misses
system.cpu.icache.demand_misses::cpu.inst         1810                       # number of demand (read+write) misses
system.cpu.icache.demand_misses::total           1810                       # number of demand (read+write) misses
system.cpu.icache.overall_misses::cpu.inst         1810                       # number of overall misses
system.cpu.icache.overall_misses::total          1810                       # number of overall misses
system.cpu.icache.ReadReq_miss_latency::cpu.inst    163652000                       # number of ReadReq miss cycles
system.cpu.icache.ReadReq_miss_latency::total    163652000                       # number of ReadReq miss cycles
system.cpu.icache.demand_miss_latency::cpu.inst    163652000                       # number of demand (read+write) miss cycles
system.cpu.icache.demand_miss_latency::total    163652000                       # number of demand (read+write) miss cycles
system.cpu.icache.overall_miss_latency::cpu.inst    163652000                       # number of overall miss cycles
system.cpu.icache.overall_miss_latency::total    163652000                       # number of overall miss cycles
system.cpu.icache.ReadReq_accesses::cpu.inst    687397862                       # number of ReadReq accesses(hits+misses)
system.cpu.icache.ReadReq_accesses::total    687397862                       # number of ReadReq accesses(hits+misses)
system.cpu.icache.demand_accesses::cpu.inst    687397862                       # number of demand (read+write) accesses
system.cpu.icache.demand_accesses::total    687397862                       # number of demand (read+write) accesses
system.cpu.icache.overall_accesses::cpu.inst    687397862                       # number of overall (read+write) accesses
system.cpu.icache.overall_accesses::total    687397862                       # number of overall (read+write) accesses
system.cpu.icache.ReadReq_miss_rate::cpu.inst     0.000003                       # miss rate for ReadReq accesses
system.cpu.icache.ReadReq_miss_rate::total     0.000003                       # miss rate for ReadReq accesses
system.cpu.icache.demand_miss_rate::cpu.inst     0.000003                       # miss rate for demand accesses
system.cpu.icache.demand_miss_rate::total     0.000003                       # miss rate for demand accesses
system.cpu.icache.overall_miss_rate::cpu.inst     0.000003                       # miss rate for overall accesses
system.cpu.icache.overall_miss_rate::total     0.000003                       # miss rate for overall accesses
system.cpu.icache.ReadReq_avg_miss_latency::cpu.inst 90415.469613                       # average ReadReq miss latency
system.cpu.icache.ReadReq_avg_miss_latency::total 90415.469613                       # average ReadReq miss latency
system.cpu.icache.demand_avg_miss_latency::cpu.inst 90415.469613                       # average overall miss latency
system.cpu.icache.demand_avg_miss_latency::total 90415.469613                       # average overall miss latency
system.cpu.icache.overall_avg_miss_latency::cpu.inst 90415.469613                       # average overall miss latency
system.cpu.icache.overall_avg_miss_latency::total 90415.469613                       # average overall miss latency
system.cpu.icache.blocked_cycles::no_mshrs            0                       # number of cycles access was blocked
system.cpu.icache.blocked_cycles::no_targets            0                       # number of cycles access was blocked
system.cpu.icache.blocked::no_mshrs                 0                       # number of cycles access was blocked
system.cpu.icache.blocked::no_targets               0                       # number of cycles access was blocked
system.cpu.icache.avg_blocked_cycles::no_mshrs          nan                       # average number of cycles each access was blocked
system.cpu.icache.avg_blocked_cycles::no_targets          nan                       # average number of cycles each access was blocked
system.cpu.icache.writebacks::writebacks          191                       # number of writebacks
system.cpu.icache.writebacks::total               191                       # number of writebacks
system.cpu.icache.ReadReq_mshr_misses::cpu.inst         1810                       # number of ReadReq MSHR misses
system.cpu.icache.ReadReq_mshr_misses::total         1810                       # number of ReadReq MSHR misses
system.cpu.icache.demand_mshr_misses::cpu.inst         1810                       # number of demand (read+write) MSHR misses
system.cpu.icache.demand_mshr_misses::total         1810                       # number of demand (read+write) MSHR misses
system.cpu.icache.overall_mshr_misses::cpu.inst         1810                       # number of overall MSHR misses
system.cpu.icache.overall_mshr_misses::total         1810                       # number of overall MSHR misses
system.cpu.icache.ReadReq_mshr_miss_latency::cpu.inst    161842000                       # number of ReadReq MSHR miss cycles
system.cpu.icache.ReadReq_mshr_miss_latency::total    161842000                       # number of ReadReq MSHR miss cycles
system.cpu.icache.demand_mshr_miss_latency::cpu.inst    161842000                       # number of demand (read+write) MSHR miss cycles
system.cpu.icache.demand_mshr_miss_latency::total    161842000                       # number of demand (read+write) MSHR miss cycles
system.cpu.icache.overall_mshr_miss_latency::cpu.inst    161842000                       # number of overall MSHR miss cycles
system.cpu.icache.overall_mshr_miss_latency::total    161842000                       # number of overall MSHR miss cycles
system.cpu.icache.ReadReq_mshr_miss_rate::cpu.inst     0.000003                       # mshr miss rate for ReadReq accesses
system.cpu.icache.ReadReq_mshr_miss_rate::total     0.000003                       # mshr miss rate for ReadReq accesses
system.cpu.icache.demand_mshr_miss_rate::cpu.inst     0.000003                       # mshr miss rate for demand accesses
system.cpu.icache.demand_mshr_miss_rate::total     0.000003                       # mshr miss rate for demand accesses
system.cpu.icache.overall_mshr_miss_rate::cpu.inst     0.000003                       # mshr miss rate for overall accesses
system.cpu.icache.overall_mshr_miss_rate::total     0.000003                       # mshr miss rate for overall accesses
system.cpu.icache.ReadReq_avg_mshr_miss_latency::cpu.inst 89415.469613                       # average ReadReq mshr miss latency
system.cpu.icache.ReadReq_avg_mshr_miss_latency::total 89415.469613                       # average ReadReq mshr miss latency
system.cpu.icache.demand_avg_mshr_miss_latency::cpu.inst 89415.469613                       # average overall mshr miss latency
system.cpu.icache.demand_avg_mshr_miss_latency::total 89415.469613                       # average overall mshr miss latency
system.cpu.icache.overall_avg_mshr_miss_latency::cpu.inst 89415.469613                       # average overall mshr miss latency
system.cpu.icache.overall_avg_mshr_miss_latency::total 89415.469613                       # average overall mshr miss latency
system.cpu.itb_walker_cache.tags.pwrStateResidencyTicks::UNDEFINED 1094691767500                       # Cumulative time (in ticks) in various power states
system.cpu.itb_walker_cache.tags.replacements            0                       # number of replacements
system.cpu.itb_walker_cache.tags.tagsinuse            0                       # Cycle average of tags in use
system.cpu.itb_walker_cache.tags.total_refs            0                       # Total number of references to valid blocks.
system.cpu.itb_walker_cache.tags.sampled_refs            0                       # Sample count of references to valid blocks.
system.cpu.itb_walker_cache.tags.avg_refs          nan                       # Average number of references to valid blocks.
system.cpu.itb_walker_cache.tags.warmup_cycle            0                       # Cycle when the warmup percentage was hit.
system.cpu.itb_walker_cache.tags.tag_accesses            0                       # Number of tag accesses
system.cpu.itb_walker_cache.tags.data_accesses            0                       # Number of data accesses
system.cpu.itb_walker_cache.pwrStateResidencyTicks::UNDEFINED 1094691767500                       # Cumulative time (in ticks) in various power states
system.cpu.itb_walker_cache.blocked_cycles::no_mshrs            0                       # number of cycles access was blocked
system.cpu.itb_walker_cache.blocked_cycles::no_targets            0                       # number of cycles access was blocked
system.cpu.itb_walker_cache.blocked::no_mshrs            0                       # number of cycles access was blocked
system.cpu.itb_walker_cache.blocked::no_targets            0                       # number of cycles access was blocked
system.cpu.itb_walker_cache.avg_blocked_cycles::no_mshrs          nan                       # average number of cycles each access was blocked
system.cpu.itb_walker_cache.avg_blocked_cycles::no_targets          nan                       # average number of cycles each access was blocked
system.l2.tags.pwrStateResidencyTicks::UNDEFINED 1094691767500                       # Cumulative time (in ticks) in various power states
system.l2.tags.replacements                    956237                       # number of replacements
system.l2.tags.tagsinuse                 32637.595505                       # Cycle average of tags in use
system.l2.tags.total_refs                     3717665                       # Total number of references to valid blocks.
system.l2.tags.sampled_refs                    989005                       # Sample count of references to valid blocks.
system.l2.tags.avg_refs                      3.758995                       # Average number of references to valid blocks.
system.l2.tags.warmup_cycle                5516293000                       # Cycle when the warmup percentage was hit.
system.l2.tags.occ_blocks::writebacks       94.021163                       # Average occupied blocks per requestor
system.l2.tags.occ_blocks::cpu.inst         70.360874                       # Average occupied blocks per requestor
system.l2.tags.occ_blocks::cpu.data      32473.213467                       # Average occupied blocks per requestor
system.l2.tags.occ_percent::writebacks       0.002869                       # Average percentage of cache occupancy
system.l2.tags.occ_percent::cpu.inst         0.002147                       # Average percentage of cache occupancy
system.l2.tags.occ_percent::cpu.data         0.991004                       # Average percentage of cache occupancy
system.l2.tags.occ_percent::total            0.996020                       # Average percentage of cache occupancy
system.l2.tags.occ_task_id_blocks::1024         32768                       # Occupied blocks per task id
system.l2.tags.age_task_id_blocks_1024::0            1                       # Occupied blocks per task id
system.l2.tags.age_task_id_blocks_1024::1           24                       # Occupied blocks per task id
system.l2.tags.age_task_id_blocks_1024::2           32                       # Occupied blocks per task id
system.l2.tags.age_task_id_blocks_1024::3          491                       # Occupied blocks per task id
system.l2.tags.age_task_id_blocks_1024::4        32220                       # Occupied blocks per task id
system.l2.tags.occ_task_id_percent::1024            1                       # Percentage of cache occupancy per task id
system.l2.tags.tag_accesses                  19820309                       # Number of tag accesses
system.l2.tags.data_accesses                 19820309                       # Number of data accesses
system.l2.pwrStateResidencyTicks::UNDEFINED 1094691767500                       # Cumulative time (in ticks) in various power states
system.l2.WritebackDirty_hits::writebacks      1072106                       # number of WritebackDirty hits
system.l2.WritebackDirty_hits::total          1072106                       # number of WritebackDirty hits
system.l2.WritebackClean_hits::writebacks          191                       # number of WritebackClean hits
system.l2.WritebackClean_hits::total              191                       # number of WritebackClean hits
system.l2.ReadExReq_hits::cpu.data             228295                       # number of ReadExReq hits
system.l2.ReadExReq_hits::total                228295                       # number of ReadExReq hits
system.l2.ReadCleanReq_hits::cpu.inst               2                       # number of ReadCleanReq hits
system.l2.ReadCleanReq_hits::total                  2                       # number of ReadCleanReq hits
system.l2.ReadSharedReq_hits::cpu.data        1141925                       # number of ReadSharedReq hits
system.l2.ReadSharedReq_hits::total           1141925                       # number of ReadSharedReq hits
system.l2.demand_hits::cpu.inst                     2                       # number of demand (read+write) hits
system.l2.demand_hits::cpu.data               1370220                       # number of demand (read+write) hits
system.l2.demand_hits::total                  1370222                       # number of demand (read+write) hits
system.l2.overall_hits::cpu.inst                    2                       # number of overall hits
system.l2.overall_hits::cpu.data              1370220                       # number of overall hits
system.l2.overall_hits::total                 1370222                       # number of overall hits
system.l2.ReadExReq_misses::cpu.data           474107                       # number of ReadExReq misses
system.l2.ReadExReq_misses::total              474107                       # number of ReadExReq misses
system.l2.ReadCleanReq_misses::cpu.inst          1808                       # number of ReadCleanReq misses
system.l2.ReadCleanReq_misses::total             1808                       # number of ReadCleanReq misses
system.l2.ReadSharedReq_misses::cpu.data       510634                       # number of ReadSharedReq misses
system.l2.ReadSharedReq_misses::total          510634                       # number of ReadSharedReq misses
system.l2.demand_misses::cpu.inst                1808                       # number of demand (read+write) misses
system.l2.demand_misses::cpu.data              984741                       # number of demand (read+write) misses
system.l2.demand_misses::total                 986549                       # number of demand (read+write) misses
system.l2.overall_misses::cpu.inst               1808                       # number of overall misses
system.l2.overall_misses::cpu.data             984741                       # number of overall misses
system.l2.overall_misses::total                986549                       # number of overall misses
system.l2.ReadExReq_miss_latency::cpu.data  44515912000                       # number of ReadExReq miss cycles
system.l2.ReadExReq_miss_latency::total   44515912000                       # number of ReadExReq miss cycles
system.l2.ReadCleanReq_miss_latency::cpu.inst    159105000                       # number of ReadCleanReq miss cycles
system.l2.ReadCleanReq_miss_latency::total    159105000                       # number of ReadCleanReq miss cycles
system.l2.ReadSharedReq_miss_latency::cpu.data  50080452500                       # number of ReadSharedReq miss cycles
system.l2.ReadSharedReq_miss_latency::total  50080452500                       # number of ReadSharedReq miss cycles
system.l2.demand_miss_latency::cpu.inst     159105000                       # number of demand (read+write) miss cycles
system.l2.demand_miss_latency::cpu.data   94596364500                       # number of demand (read+write) miss cycles
system.l2.demand_miss_latency::total      94755469500                       # number of demand (read+write) miss cycles
system.l2.overall_miss_latency::cpu.inst    159105000                       # number of overall miss cycles
system.l2.overall_miss_latency::cpu.data  94596364500                       # number of overall miss cycles
system.l2.overall_miss_latency::total     94755469500                       # number of overall miss cycles
system.l2.WritebackDirty_accesses::writebacks      1072106                       # number of WritebackDirty accesses(hits+misses)
system.l2.WritebackDirty_accesses::total      1072106                       # number of WritebackDirty accesses(hits+misses)
system.l2.WritebackClean_accesses::writebacks          191                       # number of WritebackClean accesses(hits+misses)
system.l2.WritebackClean_accesses::total          191                       # number of WritebackClean accesses(hits+misses)
system.l2.ReadExReq_accesses::cpu.data         702402                       # number of ReadExReq accesses(hits+misses)
system.l2.ReadExReq_accesses::total            702402                       # number of ReadExReq accesses(hits+misses)
system.l2.ReadCleanReq_accesses::cpu.inst         1810                       # number of ReadCleanReq accesses(hits+misses)
system.l2.ReadCleanReq_accesses::total           1810                       # number of ReadCleanReq accesses(hits+misses)
system.l2.ReadSharedReq_accesses::cpu.data      1652559                       # number of ReadSharedReq accesses(hits+misses)
system.l2.ReadSharedReq_accesses::total       1652559                       # number of ReadSharedReq accesses(hits+misses)
system.l2.demand_accesses::cpu.inst              1810                       # number of demand (read+write) accesses
system.l2.demand_accesses::cpu.data           2354961                       # number of demand (read+write) accesses
system.l2.demand_accesses::total              2356771                       # number of demand (read+write) accesses
system.l2.overall_accesses::cpu.inst             1810                       # number of overall (read+write) accesses
system.l2.overall_accesses::cpu.data          2354961                       # number of overall (read+write) accesses
system.l2.overall_accesses::total             2356771                       # number of overall (read+write) accesses
system.l2.ReadExReq_miss_rate::cpu.data      0.674980                       # miss rate for ReadExReq accesses
system.l2.ReadExReq_miss_rate::total         0.674980                       # miss rate for ReadExReq accesses
system.l2.ReadCleanReq_miss_rate::cpu.inst     0.998895                       # miss rate for ReadCleanReq accesses
system.l2.ReadCleanReq_miss_rate::total      0.998895                       # miss rate for ReadCleanReq accesses
system.l2.ReadSharedReq_miss_rate::cpu.data     0.308996                       # miss rate for ReadSharedReq accesses
system.l2.ReadSharedReq_miss_rate::total     0.308996                       # miss rate for ReadSharedReq accesses
system.l2.demand_miss_rate::cpu.inst         0.998895                       # miss rate for demand accesses
system.l2.demand_miss_rate::cpu.data         0.418156                       # miss rate for demand accesses
system.l2.demand_miss_rate::total            0.418602                       # miss rate for demand accesses
system.l2.overall_miss_rate::cpu.inst        0.998895                       # miss rate for overall accesses
system.l2.overall_miss_rate::cpu.data        0.418156                       # miss rate for overall accesses
system.l2.overall_miss_rate::total           0.418602                       # miss rate for overall accesses
system.l2.ReadExReq_avg_miss_latency::cpu.data 93894.230627                       # average ReadExReq miss latency
system.l2.ReadExReq_avg_miss_latency::total 93894.230627                       # average ReadExReq miss latency
system.l2.ReadCleanReq_avg_miss_latency::cpu.inst 88000.553097                       # average ReadCleanReq miss latency
system.l2.ReadCleanReq_avg_miss_latency::total 88000.553097                       # average ReadCleanReq miss latency
system.l2.ReadSharedReq_avg_miss_latency::cpu.data 98075.044944                       # average ReadSharedReq miss latency
system.l2.ReadSharedReq_avg_miss_latency::total 98075.044944                       # average ReadSharedReq miss latency
system.l2.demand_avg_miss_latency::cpu.inst 88000.553097                       # average overall miss latency
system.l2.demand_avg_miss_latency::cpu.data 96062.177263                       # average overall miss latency
system.l2.demand_avg_miss_latency::total 96047.403119                       # average overall miss latency
system.l2.overall_avg_miss_latency::cpu.inst 88000.553097                       # average overall miss latency
system.l2.overall_avg_miss_latency::cpu.data 96062.177263                       # average overall miss latency
system.l2.overall_avg_miss_latency::total 96047.403119                       # average overall miss latency
system.l2.blocked_cycles::no_mshrs                  0                       # number of cycles access was blocked
system.l2.blocked_cycles::no_targets                0                       # number of cycles access was blocked
system.l2.blocked::no_mshrs                         0                       # number of cycles access was blocked
system.l2.blocked::no_targets                       0                       # number of cycles access was blocked
system.l2.avg_blocked_cycles::no_mshrs            nan                       # average number of cycles each access was blocked
system.l2.avg_blocked_cycles::no_targets          nan                       # average number of cycles each access was blocked
system.l2.writebacks::writebacks               559536                       # number of writebacks
system.l2.writebacks::total                    559536                       # number of writebacks
system.l2.CleanEvict_mshr_misses::writebacks         1156                       # number of CleanEvict MSHR misses
system.l2.CleanEvict_mshr_misses::total          1156                       # number of CleanEvict MSHR misses
system.l2.ReadExReq_mshr_misses::cpu.data       474107                       # number of ReadExReq MSHR misses
system.l2.ReadExReq_mshr_misses::total         474107                       # number of ReadExReq MSHR misses
system.l2.ReadCleanReq_mshr_misses::cpu.inst         1808                       # number of ReadCleanReq MSHR misses
system.l2.ReadCleanReq_mshr_misses::total         1808                       # number of ReadCleanReq MSHR misses
system.l2.ReadSharedReq_mshr_misses::cpu.data       510634                       # number of ReadSharedReq MSHR misses
system.l2.ReadSharedReq_mshr_misses::total       510634                       # number of ReadSharedReq MSHR misses
system.l2.demand_mshr_misses::cpu.inst           1808                       # number of demand (read+write) MSHR misses
system.l2.demand_mshr_misses::cpu.data         984741                       # number of demand (read+write) MSHR misses
system.l2.demand_mshr_misses::total            986549                       # number of demand (read+write) MSHR misses
system.l2.overall_mshr_misses::cpu.inst          1808                       # number of overall MSHR misses
system.l2.overall_mshr_misses::cpu.data        984741                       # number of overall MSHR misses
system.l2.overall_mshr_misses::total           986549                       # number of overall MSHR misses
system.l2.ReadExReq_mshr_miss_latency::cpu.data  39774842000                       # number of ReadExReq MSHR miss cycles
system.l2.ReadExReq_mshr_miss_latency::total  39774842000                       # number of ReadExReq MSHR miss cycles
system.l2.ReadCleanReq_mshr_miss_latency::cpu.inst    141025000                       # number of ReadCleanReq MSHR miss cycles
system.l2.ReadCleanReq_mshr_miss_latency::total    141025000                       # number of ReadCleanReq MSHR miss cycles
system.l2.ReadSharedReq_mshr_miss_latency::cpu.data  44974112500                       # number of ReadSharedReq MSHR miss cycles
system.l2.ReadSharedReq_mshr_miss_latency::total  44974112500                       # number of ReadSharedReq MSHR miss cycles
system.l2.demand_mshr_miss_latency::cpu.inst    141025000                       # number of demand (read+write) MSHR miss cycles
system.l2.demand_mshr_miss_latency::cpu.data  84748954500                       # number of demand (read+write) MSHR miss cycles
system.l2.demand_mshr_miss_latency::total  84889979500                       # number of demand (read+write) MSHR miss cycles
system.l2.overall_mshr_miss_latency::cpu.inst    141025000                       # number of overall MSHR miss cycles
system.l2.overall_mshr_miss_latency::cpu.data  84748954500                       # number of overall MSHR miss cycles
system.l2.overall_mshr_miss_latency::total  84889979500                       # number of overall MSHR miss cycles
system.l2.CleanEvict_mshr_miss_rate::writebacks          inf                       # mshr miss rate for CleanEvict accesses
system.l2.CleanEvict_mshr_miss_rate::total          inf                       # mshr miss rate for CleanEvict accesses
system.l2.ReadExReq_mshr_miss_rate::cpu.data     0.674980                       # mshr miss rate for ReadExReq accesses
system.l2.ReadExReq_mshr_miss_rate::total     0.674980                       # mshr miss rate for ReadExReq accesses
system.l2.ReadCleanReq_mshr_miss_rate::cpu.inst     0.998895                       # mshr miss rate for ReadCleanReq accesses
system.l2.ReadCleanReq_mshr_miss_rate::total     0.998895                       # mshr miss rate for ReadCleanReq accesses
system.l2.ReadSharedReq_mshr_miss_rate::cpu.data     0.308996                       # mshr miss rate for ReadSharedReq accesses
system.l2.ReadSharedReq_mshr_miss_rate::total     0.308996                       # mshr miss rate for ReadSharedReq accesses
system.l2.demand_mshr_miss_rate::cpu.inst     0.998895                       # mshr miss rate for demand accesses
system.l2.demand_mshr_miss_rate::cpu.data     0.418156                       # mshr miss rate for demand accesses
system.l2.demand_mshr_miss_rate::total       0.418602                       # mshr miss rate for demand accesses
system.l2.overall_mshr_miss_rate::cpu.inst     0.998895                       # mshr miss rate for overall accesses
system.l2.overall_mshr_miss_rate::cpu.data     0.418156                       # mshr miss rate for overall accesses
system.l2.overall_mshr_miss_rate::total      0.418602                       # mshr miss rate for overall accesses
system.l2.ReadExReq_avg_mshr_miss_latency::cpu.data 83894.230627                       # average ReadExReq mshr miss latency
system.l2.ReadExReq_avg_mshr_miss_latency::total 83894.230627                       # average ReadExReq mshr miss latency
system.l2.ReadCleanReq_avg_mshr_miss_latency::cpu.inst 78000.553097                       # average ReadCleanReq mshr miss latency
system.l2.ReadCleanReq_avg_mshr_miss_latency::total 78000.553097                       # average ReadCleanReq mshr miss latency
system.l2.ReadSharedReq_avg_mshr_miss_latency::cpu.data 88075.044944                       # average ReadSharedReq mshr miss latency
system.l2.ReadSharedReq_avg_mshr_miss_latency::total 88075.044944                       # average ReadSharedReq mshr miss latency
system.l2.demand_avg_mshr_miss_latency::cpu.inst 78000.553097                       # average overall mshr miss latency
system.l2.demand_avg_mshr_miss_latency::cpu.data 86062.177263                       # average overall mshr miss latency
system.l2.demand_avg_mshr_miss_latency::total 86047.403119                       # average overall mshr miss latency
system.l2.overall_avg_mshr_miss_latency::cpu.inst 78000.553097                       # average overall mshr miss latency
system.l2.overall_avg_mshr_miss_latency::cpu.data 86062.177263                       # average overall mshr miss latency
system.l2.overall_avg_mshr_miss_latency::total 86047.403119                       # average overall mshr miss latency
system.membus.snoop_filter.tot_requests       1939119                       # Total number of requests made to the snoop filter.
system.membus.snoop_filter.hit_single_requests       952570                       # Number of requests hitting in the snoop filter with a single holder of the requested data.
system.membus.snoop_filter.hit_multi_requests            0                       # Number of requests hitting in the snoop filter with multiple (>1) holders of the requested data.
system.membus.snoop_filter.tot_snoops               0                       # Total number of snoops made to the snoop filter.
system.membus.snoop_filter.hit_single_snoops            0                       # Number of snoops hitting in the snoop filter with a single holder of the requested data.
system.membus.snoop_filter.hit_multi_snoops            0                       # Number of snoops hitting in the snoop filter with multiple (>1) holders of the requested data.
system.membus.pwrStateResidencyTicks::UNDEFINED 1094691767500                       # Cumulative time (in ticks) in various power states
system.membus.trans_dist::ReadResp             512442                       # Transaction distribution
system.membus.trans_dist::WritebackDirty       559536                       # Transaction distribution
system.membus.trans_dist::CleanEvict           393034                       # Transaction distribution
system.membus.trans_dist::ReadExReq            474107                       # Transaction distribution
system.membus.trans_dist::ReadExResp           474107                       # Transaction distribution
system.membus.trans_dist::ReadSharedReq        512442                       # Transaction distribution
system.membus.pkt_count_system.l2.mem_side::system.mem_ctrls.port      2925668                       # Packet count per connected master and slave (bytes)
system.membus.pkt_count_system.l2.mem_side::total      2925668                       # Packet count per connected master and slave (bytes)
system.membus.pkt_count::total                2925668                       # Packet count per connected master and slave (bytes)
system.membus.pkt_size_system.l2.mem_side::system.mem_ctrls.port     49474720                       # Cumulative packet size per connected master and slave (bytes)
system.membus.pkt_size_system.l2.mem_side::total     49474720                       # Cumulative packet size per connected master and slave (bytes)
system.membus.pkt_size::total                49474720                       # Cumulative packet size per connected master and slave (bytes)
system.membus.snoops                                0                       # Total snoops (count)
system.membus.snoopTraffic                          0                       # Total snoop traffic (bytes)
system.membus.snoop_fanout::samples            986549                       # Request fanout histogram
system.membus.snoop_fanout::mean                    0                       # Request fanout histogram
system.membus.snoop_fanout::stdev                   0                       # Request fanout histogram
system.membus.snoop_fanout::underflows              0      0.00%      0.00% # Request fanout histogram
system.membus.snoop_fanout::0                  986549    100.00%    100.00% # Request fanout histogram
system.membus.snoop_fanout::1                       0      0.00%    100.00% # Request fanout histogram
system.membus.snoop_fanout::overflows               0      0.00%    100.00% # Request fanout histogram
system.membus.snoop_fanout::min_value               0                       # Request fanout histogram
system.membus.snoop_fanout::max_value               0                       # Request fanout histogram
system.membus.snoop_fanout::total              986549                       # Request fanout histogram
system.membus.reqLayer2.occupancy          3058200000                       # Layer occupancy (ticks)
system.membus.reqLayer2.utilization               0.3                       # Layer utilization (%)
system.membus.respLayer1.occupancy         3351346000                       # Layer occupancy (ticks)
system.membus.respLayer1.utilization              0.3                       # Layer utilization (%)
system.tol2bus.snoop_filter.tot_requests      4707827                       # Total number of requests made to the snoop filter.
system.tol2bus.snoop_filter.hit_single_requests      2351056                       # Number of requests hitting in the snoop filter with a single holder of the requested data.
system.tol2bus.snoop_filter.hit_multi_requests            1                       # Number of requests hitting in the snoop filter with multiple (>1) holders of the requested data.
system.tol2bus.snoop_filter.tot_snoops           4823                       # Total number of snoops made to the snoop filter.
system.tol2bus.snoop_filter.hit_single_snoops         4823                       # Number of snoops hitting in the snoop filter with a single holder of the requested data.
system.tol2bus.snoop_filter.hit_multi_snoops            0                       # Number of snoops hitting in the snoop filter with multiple (>1) holders of the requested data.
system.tol2bus.pwrStateResidencyTicks::UNDEFINED 1094691767500                       # Cumulative time (in ticks) in various power states
system.tol2bus.trans_dist::ReadResp           1654369                       # Transaction distribution
system.tol2bus.trans_dist::WritebackDirty      1631642                       # Transaction distribution
system.tol2bus.trans_dist::WritebackClean          191                       # Transaction distribution
system.tol2bus.trans_dist::CleanEvict         1675460                       # Transaction distribution
system.tol2bus.trans_dist::ReadExReq           702402                       # Transaction distribution
system.tol2bus.trans_dist::ReadExResp          702402                       # Transaction distribution
system.tol2bus.trans_dist::ReadCleanReq          1810                       # Transaction distribution
system.tol2bus.trans_dist::ReadSharedReq      1652559                       # Transaction distribution
system.tol2bus.pkt_count_system.cpu.icache.mem_side::system.l2.cpu_side         3811                       # Packet count per connected master and slave (bytes)
system.tol2bus.pkt_count_system.cpu.dcache.mem_side::system.l2.cpu_side      7060787                       # Packet count per connected master and slave (bytes)
system.tol2bus.pkt_count::total               7064598                       # Packet count per connected master and slave (bytes)
system.tol2bus.pkt_size_system.cpu.icache.mem_side::system.l2.cpu_side        64032                       # Cumulative packet size per connected master and slave (bytes)
system.tol2bus.pkt_size_system.cpu.dcache.mem_side::system.l2.cpu_side    109666144                       # Cumulative packet size per connected master and slave (bytes)
system.tol2bus.pkt_size::total              109730176                       # Cumulative packet size per connected master and slave (bytes)
system.tol2bus.snoops                          956237                       # Total snoops (count)
system.tol2bus.snoopTraffic                  17905152                       # Total snoop traffic (bytes)
system.tol2bus.snoop_fanout::samples          3313008                       # Request fanout histogram
system.tol2bus.snoop_fanout::mean            0.001456                       # Request fanout histogram
system.tol2bus.snoop_fanout::stdev           0.038131                       # Request fanout histogram
system.tol2bus.snoop_fanout::underflows             0      0.00%      0.00% # Request fanout histogram
system.tol2bus.snoop_fanout::0                3308184     99.85%     99.85% # Request fanout histogram
system.tol2bus.snoop_fanout::1                   4824      0.15%    100.00% # Request fanout histogram
system.tol2bus.snoop_fanout::2                      0      0.00%    100.00% # Request fanout histogram
system.tol2bus.snoop_fanout::3                      0      0.00%    100.00% # Request fanout histogram
system.tol2bus.snoop_fanout::4                      0      0.00%    100.00% # Request fanout histogram
system.tol2bus.snoop_fanout::overflows              0      0.00%    100.00% # Request fanout histogram
system.tol2bus.snoop_fanout::min_value              0                       # Request fanout histogram
system.tol2bus.snoop_fanout::max_value              1                       # Request fanout histogram
system.tol2bus.snoop_fanout::total            3313008                       # Request fanout histogram
system.tol2bus.reqLayer0.occupancy         2890062000                       # Layer occupancy (ticks)
system.tol2bus.reqLayer0.utilization              0.3                       # Layer utilization (%)
system.tol2bus.respLayer0.occupancy           1810000                       # Layer occupancy (ticks)
system.tol2bus.respLayer0.utilization             0.0                       # Layer utilization (%)
system.tol2bus.respLayer1.occupancy        2354961000                       # Layer occupancy (ticks)
system.tol2bus.respLayer1.utilization             0.2                       # Layer utilization (%)

---------- End Simulation Statistics   ----------
