
---------- Begin Simulation Statistics ----------
sim_seconds                                  1.099129                       # Number of seconds simulated
sim_ticks                                1099128796500                       # Number of ticks simulated
final_tick                               1099128796500                       # Number of ticks from beginning of simulation (restored from checkpoints and never reset)
sim_freq                                 1000000000000                       # Frequency of simulated ticks
host_inst_rate                                 398977                       # Simulator instruction rate (inst/s)
host_op_rate                                   582866                       # Simulator op (including micro ops) rate (op/s)
host_tick_rate                              877053688                       # Simulator tick rate (ticks/s)
host_mem_usage                                 658828                       # Number of bytes of host memory used
host_seconds                                  1253.21                       # Real time elapsed on the host
sim_insts                                   500000001                       # Number of instructions simulated
sim_ops                                     730450447                       # Number of ops (including micro ops) simulated
system.voltage_domain.voltage                       1                       # Voltage in Volts
system.clk_domain.clock                          1000                       # Clock period in ticks
system.mem_ctrls.pwrStateResidencyTicks::UNDEFINED 1099128796500                       # Cumulative time (in ticks) in various power states
system.mem_ctrls.bytes_read::cpu.inst           57856                       # Number of bytes read from this memory
system.mem_ctrls.bytes_read::cpu.data        31634848                       # Number of bytes read from this memory
system.mem_ctrls.bytes_read::total           31692704                       # Number of bytes read from this memory
system.mem_ctrls.bytes_inst_read::cpu.inst        57856                       # Number of instructions bytes read from this memory
system.mem_ctrls.bytes_inst_read::total         57856                       # Number of instructions bytes read from this memory
system.mem_ctrls.bytes_written::writebacks     18064768                       # Number of bytes written to this memory
system.mem_ctrls.bytes_written::total        18064768                       # Number of bytes written to this memory
system.mem_ctrls.num_reads::cpu.inst             1808                       # Number of read requests responded to by this memory
system.mem_ctrls.num_reads::cpu.data           988589                       # Number of read requests responded to by this memory
system.mem_ctrls.num_reads::total              990397                       # Number of read requests responded to by this memory
system.mem_ctrls.num_writes::writebacks        564524                       # Number of write requests responded to by this memory
system.mem_ctrls.num_writes::total             564524                       # Number of write requests responded to by this memory
system.mem_ctrls.bw_read::cpu.inst              52638                       # Total read bandwidth from this memory (bytes/s)
system.mem_ctrls.bw_read::cpu.data           28781748                       # Total read bandwidth from this memory (bytes/s)
system.mem_ctrls.bw_read::total              28834386                       # Total read bandwidth from this memory (bytes/s)
system.mem_ctrls.bw_inst_read::cpu.inst         52638                       # Instruction read bandwidth from this memory (bytes/s)
system.mem_ctrls.bw_inst_read::total            52638                       # Instruction read bandwidth from this memory (bytes/s)
system.mem_ctrls.bw_write::writebacks        16435533                       # Write bandwidth from this memory (bytes/s)
system.mem_ctrls.bw_write::total             16435533                       # Write bandwidth from this memory (bytes/s)
system.mem_ctrls.bw_total::writebacks        16435533                       # Total bandwidth to/from this memory (bytes/s)
system.mem_ctrls.bw_total::cpu.inst             52638                       # Total bandwidth to/from this memory (bytes/s)
system.mem_ctrls.bw_total::cpu.data          28781748                       # Total bandwidth to/from this memory (bytes/s)
system.mem_ctrls.bw_total::total             45269919                       # Total bandwidth to/from this memory (bytes/s)
system.mem_ctrls.readReqs                      990397                       # Number of read requests accepted
system.mem_ctrls.writeReqs                     564524                       # Number of write requests accepted
system.mem_ctrls.readBursts                    990397                       # Number of DRAM read bursts, including those serviced by the write queue
system.mem_ctrls.writeBursts                   564524                       # Number of DRAM write bursts, including those merged in the write queue
system.mem_ctrls.bytesReadDRAM               63355904                       # Total number of bytes read from DRAM
system.mem_ctrls.bytesReadWrQ                   29504                       # Total number of bytes read from write queue
system.mem_ctrls.bytesWritten                31475904                       # Total number of bytes written to DRAM
system.mem_ctrls.bytesReadSys                31692704                       # Total read bytes from the system interface side
system.mem_ctrls.bytesWrittenSys             18064768                       # Total written bytes from the system interface side
system.mem_ctrls.servicedByWrQ                    461                       # Number of DRAM read bursts serviced by the write queue
system.mem_ctrls.mergedWrBursts                 72695                       # Number of DRAM write bursts merged with an existing one
system.mem_ctrls.neitherReadNorWriteReqs            0                       # Number of requests that are neither read nor write
system.mem_ctrls.perBankRdBursts::0             64806                       # Per bank write bursts
system.mem_ctrls.perBankRdBursts::1             62831                       # Per bank write bursts
system.mem_ctrls.perBankRdBursts::2             61584                       # Per bank write bursts
system.mem_ctrls.perBankRdBursts::3             60494                       # Per bank write bursts
system.mem_ctrls.perBankRdBursts::4             59631                       # Per bank write bursts
system.mem_ctrls.perBankRdBursts::5             60038                       # Per bank write bursts
system.mem_ctrls.perBankRdBursts::6             62359                       # Per bank write bursts
system.mem_ctrls.perBankRdBursts::7             61441                       # Per bank write bursts
system.mem_ctrls.perBankRdBursts::8             58832                       # Per bank write bursts
system.mem_ctrls.perBankRdBursts::9             58023                       # Per bank write bursts
system.mem_ctrls.perBankRdBursts::10            61584                       # Per bank write bursts
system.mem_ctrls.perBankRdBursts::11            62999                       # Per bank write bursts
system.mem_ctrls.perBankRdBursts::12            63559                       # Per bank write bursts
system.mem_ctrls.perBankRdBursts::13            63328                       # Per bank write bursts
system.mem_ctrls.perBankRdBursts::14            63926                       # Per bank write bursts
system.mem_ctrls.perBankRdBursts::15            64501                       # Per bank write bursts
system.mem_ctrls.perBankWrBursts::0             32290                       # Per bank write bursts
system.mem_ctrls.perBankWrBursts::1             31144                       # Per bank write bursts
system.mem_ctrls.perBankWrBursts::2             30444                       # Per bank write bursts
system.mem_ctrls.perBankWrBursts::3             29753                       # Per bank write bursts
system.mem_ctrls.perBankWrBursts::4             29129                       # Per bank write bursts
system.mem_ctrls.perBankWrBursts::5             29012                       # Per bank write bursts
system.mem_ctrls.perBankWrBursts::6             30183                       # Per bank write bursts
system.mem_ctrls.perBankWrBursts::7             30307                       # Per bank write bursts
system.mem_ctrls.perBankWrBursts::8             29844                       # Per bank write bursts
system.mem_ctrls.perBankWrBursts::9             29609                       # Per bank write bursts
system.mem_ctrls.perBankWrBursts::10            30745                       # Per bank write bursts
system.mem_ctrls.perBankWrBursts::11            31075                       # Per bank write bursts
system.mem_ctrls.perBankWrBursts::12            31493                       # Per bank write bursts
system.mem_ctrls.perBankWrBursts::13            32061                       # Per bank write bursts
system.mem_ctrls.perBankWrBursts::14            32398                       # Per bank write bursts
system.mem_ctrls.perBankWrBursts::15            32324                       # Per bank write bursts
system.mem_ctrls.numRdRetry                         0                       # Number of times read queue was full causing retry
system.mem_ctrls.numWrRetry                         0                       # Number of times write queue was full causing retry
system.mem_ctrls.totGap                  1099125551500                       # Total gap between requests
system.mem_ctrls.readPktSize::0                     0                       # Read request sizes (log2)
system.mem_ctrls.readPktSize::1                     0                       # Read request sizes (log2)
system.mem_ctrls.readPktSize::2                     0                       # Read request sizes (log2)
system.mem_ctrls.readPktSize::3                     0                       # Read request sizes (log2)
system.mem_ctrls.readPktSize::4                     0                       # Read request sizes (log2)
system.mem_ctrls.readPktSize::5                990397                       # Read request sizes (log2)
system.mem_ctrls.readPktSize::6                     0                       # Read request sizes (log2)
system.mem_ctrls.writePktSize::0                    0                       # Write request sizes (log2)
system.mem_ctrls.writePktSize::1                    0                       # Write request sizes (log2)
system.mem_ctrls.writePktSize::2                    0                       # Write request sizes (log2)
system.mem_ctrls.writePktSize::3                    0                       # Write request sizes (log2)
system.mem_ctrls.writePktSize::4                    0                       # Write request sizes (log2)
system.mem_ctrls.writePktSize::5               564524                       # Write request sizes (log2)
system.mem_ctrls.writePktSize::6                    0                       # Write request sizes (log2)
system.mem_ctrls.rdQLenPdf::0                  973492                       # What read queue length does an incoming req see
system.mem_ctrls.rdQLenPdf::1                    8179                       # What read queue length does an incoming req see
system.mem_ctrls.rdQLenPdf::2                    8250                       # What read queue length does an incoming req see
system.mem_ctrls.rdQLenPdf::3                      15                       # What read queue length does an incoming req see
system.mem_ctrls.rdQLenPdf::4                       0                       # What read queue length does an incoming req see
system.mem_ctrls.rdQLenPdf::5                       0                       # What read queue length does an incoming req see
system.mem_ctrls.rdQLenPdf::6                       0                       # What read queue length does an incoming req see
system.mem_ctrls.rdQLenPdf::7                       0                       # What read queue length does an incoming req see
system.mem_ctrls.rdQLenPdf::8                       0                       # What read queue length does an incoming req see
system.mem_ctrls.rdQLenPdf::9                       0                       # What read queue length does an incoming req see
system.mem_ctrls.rdQLenPdf::10                      0                       # What read queue length does an incoming req see
system.mem_ctrls.rdQLenPdf::11                      0                       # What read queue length does an incoming req see
system.mem_ctrls.rdQLenPdf::12                      0                       # What read queue length does an incoming req see
system.mem_ctrls.rdQLenPdf::13                      0                       # What read queue length does an incoming req see
system.mem_ctrls.rdQLenPdf::14                      0                       # What read queue length does an incoming req see
system.mem_ctrls.rdQLenPdf::15                      0                       # What read queue length does an incoming req see
system.mem_ctrls.rdQLenPdf::16                      0                       # What read queue length does an incoming req see
system.mem_ctrls.rdQLenPdf::17                      0                       # What read queue length does an incoming req see
system.mem_ctrls.rdQLenPdf::18                      0                       # What read queue length does an incoming req see
system.mem_ctrls.rdQLenPdf::19                      0                       # What read queue length does an incoming req see
system.mem_ctrls.rdQLenPdf::20                      0                       # What read queue length does an incoming req see
system.mem_ctrls.rdQLenPdf::21                      0                       # What read queue length does an incoming req see
system.mem_ctrls.rdQLenPdf::22                      0                       # What read queue length does an incoming req see
system.mem_ctrls.rdQLenPdf::23                      0                       # What read queue length does an incoming req see
system.mem_ctrls.rdQLenPdf::24                      0                       # What read queue length does an incoming req see
system.mem_ctrls.rdQLenPdf::25                      0                       # What read queue length does an incoming req see
system.mem_ctrls.rdQLenPdf::26                      0                       # What read queue length does an incoming req see
system.mem_ctrls.rdQLenPdf::27                      0                       # What read queue length does an incoming req see
system.mem_ctrls.rdQLenPdf::28                      0                       # What read queue length does an incoming req see
system.mem_ctrls.rdQLenPdf::29                      0                       # What read queue length does an incoming req see
system.mem_ctrls.rdQLenPdf::30                      0                       # What read queue length does an incoming req see
system.mem_ctrls.rdQLenPdf::31                      0                       # What read queue length does an incoming req see
system.mem_ctrls.wrQLenPdf::0                       1                       # What write queue length does an incoming req see
system.mem_ctrls.wrQLenPdf::1                       1                       # What write queue length does an incoming req see
system.mem_ctrls.wrQLenPdf::2                       1                       # What write queue length does an incoming req see
system.mem_ctrls.wrQLenPdf::3                       1                       # What write queue length does an incoming req see
system.mem_ctrls.wrQLenPdf::4                       1                       # What write queue length does an incoming req see
system.mem_ctrls.wrQLenPdf::5                       1                       # What write queue length does an incoming req see
system.mem_ctrls.wrQLenPdf::6                       1                       # What write queue length does an incoming req see
system.mem_ctrls.wrQLenPdf::7                       1                       # What write queue length does an incoming req see
system.mem_ctrls.wrQLenPdf::8                       1                       # What write queue length does an incoming req see
system.mem_ctrls.wrQLenPdf::9                       1                       # What write queue length does an incoming req see
system.mem_ctrls.wrQLenPdf::10                      1                       # What write queue length does an incoming req see
system.mem_ctrls.wrQLenPdf::11                      1                       # What write queue length does an incoming req see
system.mem_ctrls.wrQLenPdf::12                      1                       # What write queue length does an incoming req see
system.mem_ctrls.wrQLenPdf::13                      1                       # What write queue length does an incoming req see
system.mem_ctrls.wrQLenPdf::14                      1                       # What write queue length does an incoming req see
system.mem_ctrls.wrQLenPdf::15                  16806                       # What write queue length does an incoming req see
system.mem_ctrls.wrQLenPdf::16                  17978                       # What write queue length does an incoming req see
system.mem_ctrls.wrQLenPdf::17                  28565                       # What write queue length does an incoming req see
system.mem_ctrls.wrQLenPdf::18                  28564                       # What write queue length does an incoming req see
system.mem_ctrls.wrQLenPdf::19                  28563                       # What write queue length does an incoming req see
system.mem_ctrls.wrQLenPdf::20                  28561                       # What write queue length does an incoming req see
system.mem_ctrls.wrQLenPdf::21                  28563                       # What write queue length does an incoming req see
system.mem_ctrls.wrQLenPdf::22                  28563                       # What write queue length does an incoming req see
system.mem_ctrls.wrQLenPdf::23                  28562                       # What write queue length does an incoming req see
system.mem_ctrls.wrQLenPdf::24                  28561                       # What write queue length does an incoming req see
system.mem_ctrls.wrQLenPdf::25                  28565                       # What write queue length does an incoming req see
system.mem_ctrls.wrQLenPdf::26                  28562                       # What write queue length does an incoming req see
system.mem_ctrls.wrQLenPdf::27                  28562                       # What write queue length does an incoming req see
system.mem_ctrls.wrQLenPdf::28                  28566                       # What write queue length does an incoming req see
system.mem_ctrls.wrQLenPdf::29                  28577                       # What write queue length does an incoming req see
system.mem_ctrls.wrQLenPdf::30                  28570                       # What write queue length does an incoming req see
system.mem_ctrls.wrQLenPdf::31                  28565                       # What write queue length does an incoming req see
system.mem_ctrls.wrQLenPdf::32                  28561                       # What write queue length does an incoming req see
system.mem_ctrls.wrQLenPdf::33                      0                       # What write queue length does an incoming req see
system.mem_ctrls.wrQLenPdf::34                      0                       # What write queue length does an incoming req see
system.mem_ctrls.wrQLenPdf::35                      0                       # What write queue length does an incoming req see
system.mem_ctrls.wrQLenPdf::36                      0                       # What write queue length does an incoming req see
system.mem_ctrls.wrQLenPdf::37                      0                       # What write queue length does an incoming req see
system.mem_ctrls.wrQLenPdf::38                      0                       # What write queue length does an incoming req see
system.mem_ctrls.wrQLenPdf::39                      0                       # What write queue length does an incoming req see
system.mem_ctrls.wrQLenPdf::40                      0                       # What write queue length does an incoming req see
system.mem_ctrls.wrQLenPdf::41                      0                       # What write queue length does an incoming req see
system.mem_ctrls.wrQLenPdf::42                      0                       # What write queue length does an incoming req see
system.mem_ctrls.wrQLenPdf::43                      0                       # What write queue length does an incoming req see
system.mem_ctrls.wrQLenPdf::44                      0                       # What write queue length does an incoming req see
system.mem_ctrls.wrQLenPdf::45                      0                       # What write queue length does an incoming req see
system.mem_ctrls.wrQLenPdf::46                      0                       # What write queue length does an incoming req see
system.mem_ctrls.wrQLenPdf::47                      0                       # What write queue length does an incoming req see
system.mem_ctrls.wrQLenPdf::48                      0                       # What write queue length does an incoming req see
system.mem_ctrls.wrQLenPdf::49                      0                       # What write queue length does an incoming req see
system.mem_ctrls.wrQLenPdf::50                      0                       # What write queue length does an incoming req see
system.mem_ctrls.wrQLenPdf::51                      0                       # What write queue length does an incoming req see
system.mem_ctrls.wrQLenPdf::52                      0                       # What write queue length does an incoming req see
system.mem_ctrls.wrQLenPdf::53                      0                       # What write queue length does an incoming req see
system.mem_ctrls.wrQLenPdf::54                      0                       # What write queue length does an incoming req see
system.mem_ctrls.wrQLenPdf::55                      0                       # What write queue length does an incoming req see
system.mem_ctrls.wrQLenPdf::56                      0                       # What write queue length does an incoming req see
system.mem_ctrls.wrQLenPdf::57                      0                       # What write queue length does an incoming req see
system.mem_ctrls.wrQLenPdf::58                      0                       # What write queue length does an incoming req see
system.mem_ctrls.wrQLenPdf::59                      0                       # What write queue length does an incoming req see
system.mem_ctrls.wrQLenPdf::60                      0                       # What write queue length does an incoming req see
system.mem_ctrls.wrQLenPdf::61                      0                       # What write queue length does an incoming req see
system.mem_ctrls.wrQLenPdf::62                      0                       # What write queue length does an incoming req see
system.mem_ctrls.wrQLenPdf::63                      0                       # What write queue length does an incoming req see
system.mem_ctrls.bytesPerActivate::samples       736760                       # Bytes accessed per row activation
system.mem_ctrls.bytesPerActivate::mean    128.714566                       # Bytes accessed per row activation
system.mem_ctrls.bytesPerActivate::gmean    92.238375                       # Bytes accessed per row activation
system.mem_ctrls.bytesPerActivate::stdev   165.365932                       # Bytes accessed per row activation
system.mem_ctrls.bytesPerActivate::0-127       517499     70.24%     70.24% # Bytes accessed per row activation
system.mem_ctrls.bytesPerActivate::128-255       138812     18.84%     89.08% # Bytes accessed per row activation
system.mem_ctrls.bytesPerActivate::256-383        29897      4.06%     93.14% # Bytes accessed per row activation
system.mem_ctrls.bytesPerActivate::384-511        12516      1.70%     94.84% # Bytes accessed per row activation
system.mem_ctrls.bytesPerActivate::512-639        17190      2.33%     97.17% # Bytes accessed per row activation
system.mem_ctrls.bytesPerActivate::640-767         4762      0.65%     97.82% # Bytes accessed per row activation
system.mem_ctrls.bytesPerActivate::768-895         2061      0.28%     98.10% # Bytes accessed per row activation
system.mem_ctrls.bytesPerActivate::896-1023         1176      0.16%     98.26% # Bytes accessed per row activation
system.mem_ctrls.bytesPerActivate::1024-1151        12847      1.74%    100.00% # Bytes accessed per row activation
system.mem_ctrls.bytesPerActivate::total       736760                       # Bytes accessed per row activation
system.mem_ctrls.rdPerTurnAround::samples        28561                       # Reads before turning the bus around for writes
system.mem_ctrls.rdPerTurnAround::mean      34.184377                       # Reads before turning the bus around for writes
system.mem_ctrls.rdPerTurnAround::gmean     26.499928                       # Reads before turning the bus around for writes
system.mem_ctrls.rdPerTurnAround::stdev    281.364075                       # Reads before turning the bus around for writes
system.mem_ctrls.rdPerTurnAround::0-2047        28553     99.97%     99.97% # Reads before turning the bus around for writes
system.mem_ctrls.rdPerTurnAround::2048-4095            1      0.00%     99.98% # Reads before turning the bus around for writes
system.mem_ctrls.rdPerTurnAround::4096-6143            3      0.01%     99.99% # Reads before turning the bus around for writes
system.mem_ctrls.rdPerTurnAround::8192-10239            2      0.01%     99.99% # Reads before turning the bus around for writes
system.mem_ctrls.rdPerTurnAround::10240-12287            1      0.00%    100.00% # Reads before turning the bus around for writes
system.mem_ctrls.rdPerTurnAround::40960-43007            1      0.00%    100.00% # Reads before turning the bus around for writes
system.mem_ctrls.rdPerTurnAround::total         28561                       # Reads before turning the bus around for writes
system.mem_ctrls.wrPerTurnAround::samples        28561                       # Writes before turning the bus around for reads
system.mem_ctrls.wrPerTurnAround::mean      17.219670                       # Writes before turning the bus around for reads
system.mem_ctrls.wrPerTurnAround::gmean     17.192607                       # Writes before turning the bus around for reads
system.mem_ctrls.wrPerTurnAround::stdev      0.957131                       # Writes before turning the bus around for reads
system.mem_ctrls.wrPerTurnAround::16            10583     37.05%     37.05% # Writes before turning the bus around for reads
system.mem_ctrls.wrPerTurnAround::17             1172      4.10%     41.16% # Writes before turning the bus around for reads
system.mem_ctrls.wrPerTurnAround::18            16755     58.66%     99.82% # Writes before turning the bus around for reads
system.mem_ctrls.wrPerTurnAround::19               51      0.18%    100.00% # Writes before turning the bus around for reads
system.mem_ctrls.wrPerTurnAround::total         28561                       # Writes before turning the bus around for reads
system.mem_ctrls.totQLat                  26271634250                       # Total ticks spent queuing
system.mem_ctrls.totMemAccLat             44832934250                       # Total ticks spent from burst creation until serviced by the DRAM
system.mem_ctrls.totBusLat                 4949680000                       # Total ticks spent in databus transfers
system.mem_ctrls.avgQLat                     26538.72                       # Average queueing delay per DRAM burst
system.mem_ctrls.avgBusLat                    5000.00                       # Average bus latency per DRAM burst
system.mem_ctrls.avgMemAccLat                45288.72                       # Average memory access latency per DRAM burst
system.mem_ctrls.avgRdBW                        57.64                       # Average DRAM read bandwidth in MiByte/s
system.mem_ctrls.avgWrBW                        28.64                       # Average achieved write bandwidth in MiByte/s
system.mem_ctrls.avgRdBWSys                     28.83                       # Average system read bandwidth in MiByte/s
system.mem_ctrls.avgWrBWSys                     16.44                       # Average system write bandwidth in MiByte/s
system.mem_ctrls.peakBW                      12800.00                       # Theoretical peak bandwidth in MiByte/s
system.mem_ctrls.busUtil                         0.67                       # Data bus utilization in percentage
system.mem_ctrls.busUtilRead                     0.45                       # Data bus utilization in percentage for reads
system.mem_ctrls.busUtilWrite                    0.22                       # Data bus utilization in percentage for writes
system.mem_ctrls.avgRdQLen                       1.00                       # Average read queue length when enqueuing
system.mem_ctrls.avgWrQLen                      24.10                       # Average write queue length when enqueuing
system.mem_ctrls.readRowHits                   531135                       # Number of row buffer hits during reads
system.mem_ctrls.writeRowHits                  213851                       # Number of row buffer hits during writes
system.mem_ctrls.readRowHitRate                 53.65                       # Row buffer hit rate for reads
system.mem_ctrls.writeRowHitRate                43.48                       # Row buffer hit rate for writes
system.mem_ctrls.avgGap                     706869.06                       # Average gap between requests
system.mem_ctrls.pageHitRate                    50.28                       # Row buffer hit rate, read and write combined
system.mem_ctrls_0.actEnergy               2606878260                       # Energy for activate commands per rank (pJ)
system.mem_ctrls_0.preEnergy               1385584860                       # Energy for precharge commands per rank (pJ)
system.mem_ctrls_0.readEnergy              3521333760                       # Energy for read commands per rank (pJ)
system.mem_ctrls_0.writeEnergy             1264607640                       # Energy for write commands per rank (pJ)
system.mem_ctrls_0.refreshEnergy         42774026880.000008                       # Energy for refresh commands per rank (pJ)
system.mem_ctrls_0.actBackEnergy          24673281630                       # Energy for active background per rank (pJ)
system.mem_ctrls_0.preBackEnergy           1604039040                       # Energy for precharge background per rank (pJ)
system.mem_ctrls_0.actPowerDownEnergy    145271566860                       # Energy for active power-down per rank (pJ)
system.mem_ctrls_0.prePowerDownEnergy     43528623840                       # Energy for precharge power-down per rank (pJ)
system.mem_ctrls_0.selfRefreshEnergy     150074553330                       # Energy for self refresh per rank (pJ)
system.mem_ctrls_0.totalEnergy           416714767530                       # Total energy per rank (pJ)
system.mem_ctrls_0.averagePower            379.131879                       # Core power per rank (mW)
system.mem_ctrls_0.totalIdleTime         1040815729500                       # Total Idle time Per DRAM Rank
system.mem_ctrls_0.memoryStateTime::IDLE   2274927250                       # Time in different power states
system.mem_ctrls_0.memoryStateTime::REF   18137576000                       # Time in different power states
system.mem_ctrls_0.memoryStateTime::SREF 608886903000                       # Time in different power states
system.mem_ctrls_0.memoryStateTime::PRE_PDN 113355943000                       # Time in different power states
system.mem_ctrls_0.memoryStateTime::ACT   37897892750                       # Time in different power states
system.mem_ctrls_0.memoryStateTime::ACT_PDN 318575554500                       # Time in different power states
system.mem_ctrls_1.actEnergy               2653595280                       # Energy for activate commands per rank (pJ)
system.mem_ctrls_1.preEnergy               1410419340                       # Energy for precharge commands per rank (pJ)
system.mem_ctrls_1.readEnergy              3546809280                       # Energy for read commands per rank (pJ)
system.mem_ctrls_1.writeEnergy             1302645780                       # Energy for write commands per rank (pJ)
system.mem_ctrls_1.refreshEnergy         42647411040.000008                       # Energy for refresh commands per rank (pJ)
system.mem_ctrls_1.actBackEnergy          24778306980                       # Energy for active background per rank (pJ)
system.mem_ctrls_1.preBackEnergy           1616973600                       # Energy for precharge background per rank (pJ)
system.mem_ctrls_1.actPowerDownEnergy    144097511640                       # Energy for active power-down per rank (pJ)
system.mem_ctrls_1.prePowerDownEnergy     43650988320                       # Energy for precharge power-down per rank (pJ)
system.mem_ctrls_1.selfRefreshEnergy     150582083880                       # Energy for self refresh per rank (pJ)
system.mem_ctrls_1.totalEnergy           416297511180                       # Total energy per rank (pJ)
system.mem_ctrls_1.averagePower            378.752253                       # Core power per rank (mW)
system.mem_ctrls_1.totalIdleTime         1040518318750                       # Total Idle time Per DRAM Rank
system.mem_ctrls_1.memoryStateTime::IDLE   2301882250                       # Time in different power states
system.mem_ctrls_1.memoryStateTime::REF   18084322000                       # Time in different power states
system.mem_ctrls_1.memoryStateTime::SREF 610877831250                       # Time in different power states
system.mem_ctrls_1.memoryStateTime::PRE_PDN 113674347500                       # Time in different power states
system.mem_ctrls_1.memoryStateTime::ACT   38186058500                       # Time in different power states
system.mem_ctrls_1.memoryStateTime::ACT_PDN 316004355000                       # Time in different power states
system.pwrStateResidencyTicks::UNDEFINED 1099128796500                       # Cumulative time (in ticks) in various power states
system.cpu_voltage_domain.voltage                   1                       # Voltage in Volts
system.cpu_clk_domain.clock                       500                       # Clock period in ticks
system.cpu.dtb.walker.pwrStateResidencyTicks::UNDEFINED 1099128796500                       # Cumulative time (in ticks) in various power states
system.cpu.apic_clk_domain.clock                 8000                       # Clock period in ticks
system.cpu.interrupts.pwrStateResidencyTicks::UNDEFINED 1099128796500                       # Cumulative time (in ticks) in various power states
system.cpu.itb.walker.pwrStateResidencyTicks::UNDEFINED 1099128796500                       # Cumulative time (in ticks) in various power states
system.cpu.workload.num_syscalls                   86                       # Number of system calls
system.cpu.pwrStateResidencyTicks::ON    1099128796500                       # Cumulative time (in ticks) in various power states
system.cpu.numCycles                       2198257593                       # number of cpu cycles simulated
system.cpu.numWorkItemsStarted                      0                       # number of work items this cpu started
system.cpu.numWorkItemsCompleted                    0                       # number of work items this cpu completed
system.cpu.committedInsts                   500000001                       # Number of instructions committed
system.cpu.committedOps                     730450447                       # Number of ops (including micro ops) committed
system.cpu.num_int_alu_accesses             729688906                       # Number of integer alu accesses
system.cpu.num_fp_alu_accesses                    663                       # Number of float alu accesses
system.cpu.num_func_calls                     1453961                       # number of times a function call or return occured
system.cpu.num_conditional_control_insts     31770496                       # number of instructions that are conditional controls
system.cpu.num_int_insts                    729688906                       # number of integer instructions
system.cpu.num_fp_insts                           663                       # number of float instructions
system.cpu.num_int_register_reads          1698743411                       # number of times the integer registers were read
system.cpu.num_int_register_writes          621892950                       # number of times the integer registers were written
system.cpu.num_fp_register_reads                 1009                       # number of times the floating registers were read
system.cpu.num_fp_register_writes                 429                       # number of times the floating registers were written
system.cpu.num_cc_register_reads            180840559                       # number of times the CC registers were read
system.cpu.num_cc_register_writes           276245121                       # number of times the CC registers were written
system.cpu.num_mem_refs                     295985461                       # number of memory refs
system.cpu.num_load_insts                   225946751                       # Number of load instructions
system.cpu.num_store_insts                   70038710                       # Number of store instructions
system.cpu.num_idle_cycles                          0                       # Number of idle cycles
system.cpu.num_busy_cycles                 2198257593                       # Number of busy cycles
system.cpu.not_idle_fraction                        1                       # Percentage of non-idle cycles
system.cpu.idle_fraction                            0                       # Percentage of idle cycles
system.cpu.Branches                          37843296                       # Number of branches fetched
system.cpu.op_class::No_OpClass                 94740      0.01%      0.01% # Class of executed instruction
system.cpu.op_class::IntAlu                 434349067     59.46%     59.48% # Class of executed instruction
system.cpu.op_class::IntMult                    20662      0.00%     59.48% # Class of executed instruction
system.cpu.op_class::IntDiv                       119      0.00%     59.48% # Class of executed instruction
system.cpu.op_class::FloatAdd                     398      0.00%     59.48% # Class of executed instruction
system.cpu.op_class::FloatCmp                       0      0.00%     59.48% # Class of executed instruction
system.cpu.op_class::FloatCvt                       0      0.00%     59.48% # Class of executed instruction
system.cpu.op_class::FloatMult                      0      0.00%     59.48% # Class of executed instruction
system.cpu.op_class::FloatDiv                       0      0.00%     59.48% # Class of executed instruction
system.cpu.op_class::FloatSqrt                      0      0.00%     59.48% # Class of executed instruction
system.cpu.op_class::SimdAdd                        0      0.00%     59.48% # Class of executed instruction
system.cpu.op_class::SimdAddAcc                     0      0.00%     59.48% # Class of executed instruction
system.cpu.op_class::SimdAlu                        0      0.00%     59.48% # Class of executed instruction
system.cpu.op_class::SimdCmp                        0      0.00%     59.48% # Class of executed instruction
system.cpu.op_class::SimdCvt                        0      0.00%     59.48% # Class of executed instruction
system.cpu.op_class::SimdMisc                       0      0.00%     59.48% # Class of executed instruction
system.cpu.op_class::SimdMult                       0      0.00%     59.48% # Class of executed instruction
system.cpu.op_class::SimdMultAcc                    0      0.00%     59.48% # Class of executed instruction
system.cpu.op_class::SimdShift                      0      0.00%     59.48% # Class of executed instruction
system.cpu.op_class::SimdShiftAcc                   0      0.00%     59.48% # Class of executed instruction
system.cpu.op_class::SimdSqrt                       0      0.00%     59.48% # Class of executed instruction
system.cpu.op_class::SimdFloatAdd                   0      0.00%     59.48% # Class of executed instruction
system.cpu.op_class::SimdFloatAlu                   0      0.00%     59.48% # Class of executed instruction
system.cpu.op_class::SimdFloatCmp                   0      0.00%     59.48% # Class of executed instruction
system.cpu.op_class::SimdFloatCvt                   0      0.00%     59.48% # Class of executed instruction
system.cpu.op_class::SimdFloatDiv                   0      0.00%     59.48% # Class of executed instruction
system.cpu.op_class::SimdFloatMisc                  0      0.00%     59.48% # Class of executed instruction
system.cpu.op_class::SimdFloatMult                  0      0.00%     59.48% # Class of executed instruction
system.cpu.op_class::SimdFloatMultAcc               0      0.00%     59.48% # Class of executed instruction
system.cpu.op_class::SimdFloatSqrt                  0      0.00%     59.48% # Class of executed instruction
system.cpu.op_class::MemRead                225946751     30.93%     90.41% # Class of executed instruction
system.cpu.op_class::MemWrite                70038710      9.59%    100.00% # Class of executed instruction
system.cpu.op_class::IprAccess                      0      0.00%    100.00% # Class of executed instruction
system.cpu.op_class::InstPrefetch                   0      0.00%    100.00% # Class of executed instruction
system.cpu.op_class::total                  730450447                       # Class of executed instruction
system.cpu.dcache.tags.pwrStateResidencyTicks::UNDEFINED 1099128796500                       # Cumulative time (in ticks) in various power states
system.cpu.dcache.tags.replacements           2684590                       # number of replacements
system.cpu.dcache.tags.tagsinuse          2042.165005                       # Cycle average of tags in use
system.cpu.dcache.tags.total_refs           293298836                       # Total number of references to valid blocks.
system.cpu.dcache.tags.sampled_refs           2686638                       # Sample count of references to valid blocks.
system.cpu.dcache.tags.avg_refs            109.169466                       # Average number of references to valid blocks.
system.cpu.dcache.tags.warmup_cycle        3852955500                       # Cycle when the warmup percentage was hit.
system.cpu.dcache.tags.occ_blocks::cpu.data  2042.165005                       # Average occupied blocks per requestor
system.cpu.dcache.tags.occ_percent::cpu.data     0.997151                       # Average percentage of cache occupancy
system.cpu.dcache.tags.occ_percent::total     0.997151                       # Average percentage of cache occupancy
system.cpu.dcache.tags.occ_task_id_blocks::1024         2048                       # Occupied blocks per task id
system.cpu.dcache.tags.age_task_id_blocks_1024::0            1                       # Occupied blocks per task id
system.cpu.dcache.tags.age_task_id_blocks_1024::1            3                       # Occupied blocks per task id
system.cpu.dcache.tags.age_task_id_blocks_1024::2           32                       # Occupied blocks per task id
system.cpu.dcache.tags.age_task_id_blocks_1024::3         1769                       # Occupied blocks per task id
system.cpu.dcache.tags.age_task_id_blocks_1024::4          243                       # Occupied blocks per task id
system.cpu.dcache.tags.occ_task_id_percent::1024            1                       # Percentage of cache occupancy per task id
system.cpu.dcache.tags.tag_accesses        1186628534                       # Number of tag accesses
system.cpu.dcache.tags.data_accesses       1186628534                       # Number of data accesses
system.cpu.dcache.pwrStateResidencyTicks::UNDEFINED 1099128796500                       # Cumulative time (in ticks) in various power states
system.cpu.dcache.ReadReq_hits::cpu.data    224004516                       # number of ReadReq hits
system.cpu.dcache.ReadReq_hits::total       224004516                       # number of ReadReq hits
system.cpu.dcache.WriteReq_hits::cpu.data     69294320                       # number of WriteReq hits
system.cpu.dcache.WriteReq_hits::total       69294320                       # number of WriteReq hits
system.cpu.dcache.demand_hits::cpu.data     293298836                       # number of demand (read+write) hits
system.cpu.dcache.demand_hits::total        293298836                       # number of demand (read+write) hits
system.cpu.dcache.overall_hits::cpu.data    293298836                       # number of overall hits
system.cpu.dcache.overall_hits::total       293298836                       # number of overall hits
system.cpu.dcache.ReadReq_misses::cpu.data      1925862                       # number of ReadReq misses
system.cpu.dcache.ReadReq_misses::total       1925862                       # number of ReadReq misses
system.cpu.dcache.WriteReq_misses::cpu.data       744392                       # number of WriteReq misses
system.cpu.dcache.WriteReq_misses::total       744392                       # number of WriteReq misses
system.cpu.dcache.SoftPFReq_misses::cpu.data        16384                       # number of SoftPFReq misses
system.cpu.dcache.SoftPFReq_misses::total        16384                       # number of SoftPFReq misses
system.cpu.dcache.demand_misses::cpu.data      2670254                       # number of demand (read+write) misses
system.cpu.dcache.demand_misses::total        2670254                       # number of demand (read+write) misses
system.cpu.dcache.overall_misses::cpu.data      2686638                       # number of overall misses
system.cpu.dcache.overall_misses::total       2686638                       # number of overall misses
system.cpu.dcache.ReadReq_miss_latency::cpu.data  68993090500                       # number of ReadReq miss cycles
system.cpu.dcache.ReadReq_miss_latency::total  68993090500                       # number of ReadReq miss cycles
system.cpu.dcache.WriteReq_miss_latency::cpu.data  49260817000                       # number of WriteReq miss cycles
system.cpu.dcache.WriteReq_miss_latency::total  49260817000                       # number of WriteReq miss cycles
system.cpu.dcache.demand_miss_latency::cpu.data 118253907500                       # number of demand (read+write) miss cycles
system.cpu.dcache.demand_miss_latency::total 118253907500                       # number of demand (read+write) miss cycles
system.cpu.dcache.overall_miss_latency::cpu.data 118253907500                       # number of overall miss cycles
system.cpu.dcache.overall_miss_latency::total 118253907500                       # number of overall miss cycles
system.cpu.dcache.ReadReq_accesses::cpu.data    225930378                       # number of ReadReq accesses(hits+misses)
system.cpu.dcache.ReadReq_accesses::total    225930378                       # number of ReadReq accesses(hits+misses)
system.cpu.dcache.WriteReq_accesses::cpu.data     70038712                       # number of WriteReq accesses(hits+misses)
system.cpu.dcache.WriteReq_accesses::total     70038712                       # number of WriteReq accesses(hits+misses)
system.cpu.dcache.SoftPFReq_accesses::cpu.data        16384                       # number of SoftPFReq accesses(hits+misses)
system.cpu.dcache.SoftPFReq_accesses::total        16384                       # number of SoftPFReq accesses(hits+misses)
system.cpu.dcache.demand_accesses::cpu.data    295969090                       # number of demand (read+write) accesses
system.cpu.dcache.demand_accesses::total    295969090                       # number of demand (read+write) accesses
system.cpu.dcache.overall_accesses::cpu.data    295985474                       # number of overall (read+write) accesses
system.cpu.dcache.overall_accesses::total    295985474                       # number of overall (read+write) accesses
system.cpu.dcache.ReadReq_miss_rate::cpu.data     0.008524                       # miss rate for ReadReq accesses
system.cpu.dcache.ReadReq_miss_rate::total     0.008524                       # miss rate for ReadReq accesses
system.cpu.dcache.WriteReq_miss_rate::cpu.data     0.010628                       # miss rate for WriteReq accesses
system.cpu.dcache.WriteReq_miss_rate::total     0.010628                       # miss rate for WriteReq accesses
system.cpu.dcache.SoftPFReq_miss_rate::cpu.data            1                       # miss rate for SoftPFReq accesses
system.cpu.dcache.SoftPFReq_miss_rate::total            1                       # miss rate for SoftPFReq accesses
system.cpu.dcache.demand_miss_rate::cpu.data     0.009022                       # miss rate for demand accesses
system.cpu.dcache.demand_miss_rate::total     0.009022                       # miss rate for demand accesses
system.cpu.dcache.overall_miss_rate::cpu.data     0.009077                       # miss rate for overall accesses
system.cpu.dcache.overall_miss_rate::total     0.009077                       # miss rate for overall accesses
system.cpu.dcache.ReadReq_avg_miss_latency::cpu.data 35824.524551                       # average ReadReq miss latency
system.cpu.dcache.ReadReq_avg_miss_latency::total 35824.524551                       # average ReadReq miss latency
system.cpu.dcache.WriteReq_avg_miss_latency::cpu.data 66175.908661                       # average WriteReq miss latency
system.cpu.dcache.WriteReq_avg_miss_latency::total 66175.908661                       # average WriteReq miss latency
system.cpu.dcache.demand_avg_miss_latency::cpu.data 44285.640055                       # average overall miss latency
system.cpu.dcache.demand_avg_miss_latency::total 44285.640055                       # average overall miss latency
system.cpu.dcache.overall_avg_miss_latency::cpu.data 44015.571692                       # average overall miss latency
system.cpu.dcache.overall_avg_miss_latency::total 44015.571692                       # average overall miss latency
system.cpu.dcache.blocked_cycles::no_mshrs         3072                       # number of cycles access was blocked
system.cpu.dcache.blocked_cycles::no_targets            0                       # number of cycles access was blocked
system.cpu.dcache.blocked::no_mshrs                15                       # number of cycles access was blocked
system.cpu.dcache.blocked::no_targets               0                       # number of cycles access was blocked
system.cpu.dcache.avg_blocked_cycles::no_mshrs   204.800000                       # average number of cycles each access was blocked
system.cpu.dcache.avg_blocked_cycles::no_targets          nan                       # average number of cycles each access was blocked
system.cpu.dcache.writebacks::writebacks      1225517                       # number of writebacks
system.cpu.dcache.writebacks::total           1225517                       # number of writebacks
system.cpu.dcache.ReadReq_mshr_misses::cpu.data      1925862                       # number of ReadReq MSHR misses
system.cpu.dcache.ReadReq_mshr_misses::total      1925862                       # number of ReadReq MSHR misses
system.cpu.dcache.WriteReq_mshr_misses::cpu.data       744392                       # number of WriteReq MSHR misses
system.cpu.dcache.WriteReq_mshr_misses::total       744392                       # number of WriteReq MSHR misses
system.cpu.dcache.SoftPFReq_mshr_misses::cpu.data        16384                       # number of SoftPFReq MSHR misses
system.cpu.dcache.SoftPFReq_mshr_misses::total        16384                       # number of SoftPFReq MSHR misses
system.cpu.dcache.demand_mshr_misses::cpu.data      2670254                       # number of demand (read+write) MSHR misses
system.cpu.dcache.demand_mshr_misses::total      2670254                       # number of demand (read+write) MSHR misses
system.cpu.dcache.overall_mshr_misses::cpu.data      2686638                       # number of overall MSHR misses
system.cpu.dcache.overall_mshr_misses::total      2686638                       # number of overall MSHR misses
system.cpu.dcache.ReadReq_mshr_miss_latency::cpu.data  67067228500                       # number of ReadReq MSHR miss cycles
system.cpu.dcache.ReadReq_mshr_miss_latency::total  67067228500                       # number of ReadReq MSHR miss cycles
system.cpu.dcache.WriteReq_mshr_miss_latency::cpu.data  48516425000                       # number of WriteReq MSHR miss cycles
system.cpu.dcache.WriteReq_mshr_miss_latency::total  48516425000                       # number of WriteReq MSHR miss cycles
system.cpu.dcache.SoftPFReq_mshr_miss_latency::cpu.data   1355358000                       # number of SoftPFReq MSHR miss cycles
system.cpu.dcache.SoftPFReq_mshr_miss_latency::total   1355358000                       # number of SoftPFReq MSHR miss cycles
system.cpu.dcache.demand_mshr_miss_latency::cpu.data 115583653500                       # number of demand (read+write) MSHR miss cycles
system.cpu.dcache.demand_mshr_miss_latency::total 115583653500                       # number of demand (read+write) MSHR miss cycles
system.cpu.dcache.overall_mshr_miss_latency::cpu.data 116939011500                       # number of overall MSHR miss cycles
system.cpu.dcache.overall_mshr_miss_latency::total 116939011500                       # number of overall MSHR miss cycles
system.cpu.dcache.ReadReq_mshr_miss_rate::cpu.data     0.008524                       # mshr miss rate for ReadReq accesses
system.cpu.dcache.ReadReq_mshr_miss_rate::total     0.008524                       # mshr miss rate for ReadReq accesses
system.cpu.dcache.WriteReq_mshr_miss_rate::cpu.data     0.010628                       # mshr miss rate for WriteReq accesses
system.cpu.dcache.WriteReq_mshr_miss_rate::total     0.010628                       # mshr miss rate for WriteReq accesses
system.cpu.dcache.SoftPFReq_mshr_miss_rate::cpu.data            1                       # mshr miss rate for SoftPFReq accesses
system.cpu.dcache.SoftPFReq_mshr_miss_rate::total            1                       # mshr miss rate for SoftPFReq accesses
system.cpu.dcache.demand_mshr_miss_rate::cpu.data     0.009022                       # mshr miss rate for demand accesses
system.cpu.dcache.demand_mshr_miss_rate::total     0.009022                       # mshr miss rate for demand accesses
system.cpu.dcache.overall_mshr_miss_rate::cpu.data     0.009077                       # mshr miss rate for overall accesses
system.cpu.dcache.overall_mshr_miss_rate::total     0.009077                       # mshr miss rate for overall accesses
system.cpu.dcache.ReadReq_avg_mshr_miss_latency::cpu.data 34824.524551                       # average ReadReq mshr miss latency
system.cpu.dcache.ReadReq_avg_mshr_miss_latency::total 34824.524551                       # average ReadReq mshr miss latency
system.cpu.dcache.WriteReq_avg_mshr_miss_latency::cpu.data 65175.908661                       # average WriteReq mshr miss latency
system.cpu.dcache.WriteReq_avg_mshr_miss_latency::total 65175.908661                       # average WriteReq mshr miss latency
system.cpu.dcache.SoftPFReq_avg_mshr_miss_latency::cpu.data 82724.487305                       # average SoftPFReq mshr miss latency
system.cpu.dcache.SoftPFReq_avg_mshr_miss_latency::total 82724.487305                       # average SoftPFReq mshr miss latency
system.cpu.dcache.demand_avg_mshr_miss_latency::cpu.data 43285.640055                       # average overall mshr miss latency
system.cpu.dcache.demand_avg_mshr_miss_latency::total 43285.640055                       # average overall mshr miss latency
system.cpu.dcache.overall_avg_mshr_miss_latency::cpu.data 43526.151085                       # average overall mshr miss latency
system.cpu.dcache.overall_avg_mshr_miss_latency::total 43526.151085                       # average overall mshr miss latency
system.cpu.dtb_walker_cache.tags.pwrStateResidencyTicks::UNDEFINED 1099128796500                       # Cumulative time (in ticks) in various power states
system.cpu.dtb_walker_cache.tags.replacements            0                       # number of replacements
system.cpu.dtb_walker_cache.tags.tagsinuse            0                       # Cycle average of tags in use
system.cpu.dtb_walker_cache.tags.total_refs            0                       # Total number of references to valid blocks.
system.cpu.dtb_walker_cache.tags.sampled_refs            0                       # Sample count of references to valid blocks.
system.cpu.dtb_walker_cache.tags.avg_refs          nan                       # Average number of references to valid blocks.
system.cpu.dtb_walker_cache.tags.warmup_cycle            0                       # Cycle when the warmup percentage was hit.
system.cpu.dtb_walker_cache.tags.tag_accesses            0                       # Number of tag accesses
system.cpu.dtb_walker_cache.tags.data_accesses            0                       # Number of data accesses
system.cpu.dtb_walker_cache.pwrStateResidencyTicks::UNDEFINED 1099128796500                       # Cumulative time (in ticks) in various power states
system.cpu.dtb_walker_cache.blocked_cycles::no_mshrs            0                       # number of cycles access was blocked
system.cpu.dtb_walker_cache.blocked_cycles::no_targets            0                       # number of cycles access was blocked
system.cpu.dtb_walker_cache.blocked::no_mshrs            0                       # number of cycles access was blocked
system.cpu.dtb_walker_cache.blocked::no_targets            0                       # number of cycles access was blocked
system.cpu.dtb_walker_cache.avg_blocked_cycles::no_mshrs          nan                       # average number of cycles each access was blocked
system.cpu.dtb_walker_cache.avg_blocked_cycles::no_targets          nan                       # average number of cycles each access was blocked
system.cpu.icache.tags.pwrStateResidencyTicks::UNDEFINED 1099128796500                       # Cumulative time (in ticks) in various power states
system.cpu.icache.tags.replacements               191                       # number of replacements
system.cpu.icache.tags.tagsinuse          1146.370597                       # Cycle average of tags in use
system.cpu.icache.tags.total_refs           687396052                       # Total number of references to valid blocks.
system.cpu.icache.tags.sampled_refs              1810                       # Sample count of references to valid blocks.
system.cpu.icache.tags.avg_refs          379776.824309                       # Average number of references to valid blocks.
system.cpu.icache.tags.warmup_cycle                 0                       # Cycle when the warmup percentage was hit.
system.cpu.icache.tags.occ_blocks::cpu.inst  1146.370597                       # Average occupied blocks per requestor
system.cpu.icache.tags.occ_percent::cpu.inst     0.559751                       # Average percentage of cache occupancy
system.cpu.icache.tags.occ_percent::total     0.559751                       # Average percentage of cache occupancy
system.cpu.icache.tags.occ_task_id_blocks::1024         1619                       # Occupied blocks per task id
system.cpu.icache.tags.age_task_id_blocks_1024::1           14                       # Occupied blocks per task id
system.cpu.icache.tags.age_task_id_blocks_1024::3           50                       # Occupied blocks per task id
system.cpu.icache.tags.age_task_id_blocks_1024::4         1555                       # Occupied blocks per task id
system.cpu.icache.tags.occ_task_id_percent::1024     0.790527                       # Percentage of cache occupancy per task id
system.cpu.icache.tags.tag_accesses        2749593258                       # Number of tag accesses
system.cpu.icache.tags.data_accesses       2749593258                       # Number of data accesses
system.cpu.icache.pwrStateResidencyTicks::UNDEFINED 1099128796500                       # Cumulative time (in ticks) in various power states
system.cpu.icache.ReadReq_hits::cpu.inst    687396052                       # number of ReadReq hits
system.cpu.icache.ReadReq_hits::total       687396052                       # number of ReadReq hits
system.cpu.icache.demand_hits::cpu.inst     687396052                       # number of demand (read+write) hits
system.cpu.icache.demand_hits::total        687396052                       # number of demand (read+write) hits
system.cpu.icache.overall_hits::cpu.inst    687396052                       # number of overall hits
system.cpu.icache.overall_hits::total       687396052                       # number of overall hits
system.cpu.icache.ReadReq_misses::cpu.inst         1810                       # number of ReadReq misses
system.cpu.icache.ReadReq_misses::total          1810                       # number of ReadReq misses
system.cpu.icache.demand_misses::cpu.inst         1810                       # number of demand (read+write) misses
system.cpu.icache.demand_misses::total           1810                       # number of demand (read+write) misses
system.cpu.icache.overall_misses::cpu.inst         1810                       # number of overall misses
system.cpu.icache.overall_misses::total          1810                       # number of overall misses
system.cpu.icache.ReadReq_miss_latency::cpu.inst    162115000                       # number of ReadReq miss cycles
system.cpu.icache.ReadReq_miss_latency::total    162115000                       # number of ReadReq miss cycles
system.cpu.icache.demand_miss_latency::cpu.inst    162115000                       # number of demand (read+write) miss cycles
system.cpu.icache.demand_miss_latency::total    162115000                       # number of demand (read+write) miss cycles
system.cpu.icache.overall_miss_latency::cpu.inst    162115000                       # number of overall miss cycles
system.cpu.icache.overall_miss_latency::total    162115000                       # number of overall miss cycles
system.cpu.icache.ReadReq_accesses::cpu.inst    687397862                       # number of ReadReq accesses(hits+misses)
system.cpu.icache.ReadReq_accesses::total    687397862                       # number of ReadReq accesses(hits+misses)
system.cpu.icache.demand_accesses::cpu.inst    687397862                       # number of demand (read+write) accesses
system.cpu.icache.demand_accesses::total    687397862                       # number of demand (read+write) accesses
system.cpu.icache.overall_accesses::cpu.inst    687397862                       # number of overall (read+write) accesses
system.cpu.icache.overall_accesses::total    687397862                       # number of overall (read+write) accesses
system.cpu.icache.ReadReq_miss_rate::cpu.inst     0.000003                       # miss rate for ReadReq accesses
system.cpu.icache.ReadReq_miss_rate::total     0.000003                       # miss rate for ReadReq accesses
system.cpu.icache.demand_miss_rate::cpu.inst     0.000003                       # miss rate for demand accesses
system.cpu.icache.demand_miss_rate::total     0.000003                       # miss rate for demand accesses
system.cpu.icache.overall_miss_rate::cpu.inst     0.000003                       # miss rate for overall accesses
system.cpu.icache.overall_miss_rate::total     0.000003                       # miss rate for overall accesses
system.cpu.icache.ReadReq_avg_miss_latency::cpu.inst 89566.298343                       # average ReadReq miss latency
system.cpu.icache.ReadReq_avg_miss_latency::total 89566.298343                       # average ReadReq miss latency
system.cpu.icache.demand_avg_miss_latency::cpu.inst 89566.298343                       # average overall miss latency
system.cpu.icache.demand_avg_miss_latency::total 89566.298343                       # average overall miss latency
system.cpu.icache.overall_avg_miss_latency::cpu.inst 89566.298343                       # average overall miss latency
system.cpu.icache.overall_avg_miss_latency::total 89566.298343                       # average overall miss latency
system.cpu.icache.blocked_cycles::no_mshrs            0                       # number of cycles access was blocked
system.cpu.icache.blocked_cycles::no_targets            0                       # number of cycles access was blocked
system.cpu.icache.blocked::no_mshrs                 0                       # number of cycles access was blocked
system.cpu.icache.blocked::no_targets               0                       # number of cycles access was blocked
system.cpu.icache.avg_blocked_cycles::no_mshrs          nan                       # average number of cycles each access was blocked
system.cpu.icache.avg_blocked_cycles::no_targets          nan                       # average number of cycles each access was blocked
system.cpu.icache.writebacks::writebacks          191                       # number of writebacks
system.cpu.icache.writebacks::total               191                       # number of writebacks
system.cpu.icache.ReadReq_mshr_misses::cpu.inst         1810                       # number of ReadReq MSHR misses
system.cpu.icache.ReadReq_mshr_misses::total         1810                       # number of ReadReq MSHR misses
system.cpu.icache.demand_mshr_misses::cpu.inst         1810                       # number of demand (read+write) MSHR misses
system.cpu.icache.demand_mshr_misses::total         1810                       # number of demand (read+write) MSHR misses
system.cpu.icache.overall_mshr_misses::cpu.inst         1810                       # number of overall MSHR misses
system.cpu.icache.overall_mshr_misses::total         1810                       # number of overall MSHR misses
system.cpu.icache.ReadReq_mshr_miss_latency::cpu.inst    160305000                       # number of ReadReq MSHR miss cycles
system.cpu.icache.ReadReq_mshr_miss_latency::total    160305000                       # number of ReadReq MSHR miss cycles
system.cpu.icache.demand_mshr_miss_latency::cpu.inst    160305000                       # number of demand (read+write) MSHR miss cycles
system.cpu.icache.demand_mshr_miss_latency::total    160305000                       # number of demand (read+write) MSHR miss cycles
system.cpu.icache.overall_mshr_miss_latency::cpu.inst    160305000                       # number of overall MSHR miss cycles
system.cpu.icache.overall_mshr_miss_latency::total    160305000                       # number of overall MSHR miss cycles
system.cpu.icache.ReadReq_mshr_miss_rate::cpu.inst     0.000003                       # mshr miss rate for ReadReq accesses
system.cpu.icache.ReadReq_mshr_miss_rate::total     0.000003                       # mshr miss rate for ReadReq accesses
system.cpu.icache.demand_mshr_miss_rate::cpu.inst     0.000003                       # mshr miss rate for demand accesses
system.cpu.icache.demand_mshr_miss_rate::total     0.000003                       # mshr miss rate for demand accesses
system.cpu.icache.overall_mshr_miss_rate::cpu.inst     0.000003                       # mshr miss rate for overall accesses
system.cpu.icache.overall_mshr_miss_rate::total     0.000003                       # mshr miss rate for overall accesses
system.cpu.icache.ReadReq_avg_mshr_miss_latency::cpu.inst 88566.298343                       # average ReadReq mshr miss latency
system.cpu.icache.ReadReq_avg_mshr_miss_latency::total 88566.298343                       # average ReadReq mshr miss latency
system.cpu.icache.demand_avg_mshr_miss_latency::cpu.inst 88566.298343                       # average overall mshr miss latency
system.cpu.icache.demand_avg_mshr_miss_latency::total 88566.298343                       # average overall mshr miss latency
system.cpu.icache.overall_avg_mshr_miss_latency::cpu.inst 88566.298343                       # average overall mshr miss latency
system.cpu.icache.overall_avg_mshr_miss_latency::total 88566.298343                       # average overall mshr miss latency
system.cpu.itb_walker_cache.tags.pwrStateResidencyTicks::UNDEFINED 1099128796500                       # Cumulative time (in ticks) in various power states
system.cpu.itb_walker_cache.tags.replacements            0                       # number of replacements
system.cpu.itb_walker_cache.tags.tagsinuse            0                       # Cycle average of tags in use
system.cpu.itb_walker_cache.tags.total_refs            0                       # Total number of references to valid blocks.
system.cpu.itb_walker_cache.tags.sampled_refs            0                       # Sample count of references to valid blocks.
system.cpu.itb_walker_cache.tags.avg_refs          nan                       # Average number of references to valid blocks.
system.cpu.itb_walker_cache.tags.warmup_cycle            0                       # Cycle when the warmup percentage was hit.
system.cpu.itb_walker_cache.tags.tag_accesses            0                       # Number of tag accesses
system.cpu.itb_walker_cache.tags.data_accesses            0                       # Number of data accesses
system.cpu.itb_walker_cache.pwrStateResidencyTicks::UNDEFINED 1099128796500                       # Cumulative time (in ticks) in various power states
system.cpu.itb_walker_cache.blocked_cycles::no_mshrs            0                       # number of cycles access was blocked
system.cpu.itb_walker_cache.blocked_cycles::no_targets            0                       # number of cycles access was blocked
system.cpu.itb_walker_cache.blocked::no_mshrs            0                       # number of cycles access was blocked
system.cpu.itb_walker_cache.blocked::no_targets            0                       # number of cycles access was blocked
system.cpu.itb_walker_cache.avg_blocked_cycles::no_mshrs          nan                       # average number of cycles each access was blocked
system.cpu.itb_walker_cache.avg_blocked_cycles::no_targets          nan                       # average number of cycles each access was blocked
system.l2.tags.pwrStateResidencyTicks::UNDEFINED 1099128796500                       # Cumulative time (in ticks) in various power states
system.l2.tags.replacements                    963682                       # number of replacements
system.l2.tags.tagsinuse                 32638.052824                       # Cycle average of tags in use
system.l2.tags.total_refs                     4371332                       # Total number of references to valid blocks.
system.l2.tags.sampled_refs                    996450                       # Sample count of references to valid blocks.
system.l2.tags.avg_refs                      4.386906                       # Average number of references to valid blocks.
system.l2.tags.warmup_cycle                5514340000                       # Cycle when the warmup percentage was hit.
system.l2.tags.occ_blocks::writebacks      142.647883                       # Average occupied blocks per requestor
system.l2.tags.occ_blocks::cpu.inst         34.106907                       # Average occupied blocks per requestor
system.l2.tags.occ_blocks::cpu.data      32461.298034                       # Average occupied blocks per requestor
system.l2.tags.occ_percent::writebacks       0.004353                       # Average percentage of cache occupancy
system.l2.tags.occ_percent::cpu.inst         0.001041                       # Average percentage of cache occupancy
system.l2.tags.occ_percent::cpu.data         0.990640                       # Average percentage of cache occupancy
system.l2.tags.occ_percent::total            0.996034                       # Average percentage of cache occupancy
system.l2.tags.occ_task_id_blocks::1024         32768                       # Occupied blocks per task id
system.l2.tags.age_task_id_blocks_1024::0            1                       # Occupied blocks per task id
system.l2.tags.age_task_id_blocks_1024::1           24                       # Occupied blocks per task id
system.l2.tags.age_task_id_blocks_1024::2           32                       # Occupied blocks per task id
system.l2.tags.age_task_id_blocks_1024::3          492                       # Occupied blocks per task id
system.l2.tags.age_task_id_blocks_1024::4        32219                       # Occupied blocks per task id
system.l2.tags.occ_task_id_percent::1024            1                       # Percentage of cache occupancy per task id
system.l2.tags.tag_accesses                  11742906                       # Number of tag accesses
system.l2.tags.data_accesses                 11742906                       # Number of data accesses
system.l2.pwrStateResidencyTicks::UNDEFINED 1099128796500                       # Cumulative time (in ticks) in various power states
system.l2.WritebackDirty_hits::writebacks      1225517                       # number of WritebackDirty hits
system.l2.WritebackDirty_hits::total          1225517                       # number of WritebackDirty hits
system.l2.WritebackClean_hits::writebacks          191                       # number of WritebackClean hits
system.l2.WritebackClean_hits::total              191                       # number of WritebackClean hits
system.l2.ReadExReq_hits::cpu.data             268501                       # number of ReadExReq hits
system.l2.ReadExReq_hits::total                268501                       # number of ReadExReq hits
system.l2.ReadCleanReq_hits::cpu.inst               2                       # number of ReadCleanReq hits
system.l2.ReadCleanReq_hits::total                  2                       # number of ReadCleanReq hits
system.l2.ReadSharedReq_hits::cpu.data        1429548                       # number of ReadSharedReq hits
system.l2.ReadSharedReq_hits::total           1429548                       # number of ReadSharedReq hits
system.l2.demand_hits::cpu.inst                     2                       # number of demand (read+write) hits
system.l2.demand_hits::cpu.data               1698049                       # number of demand (read+write) hits
system.l2.demand_hits::total                  1698051                       # number of demand (read+write) hits
system.l2.overall_hits::cpu.inst                    2                       # number of overall hits
system.l2.overall_hits::cpu.data              1698049                       # number of overall hits
system.l2.overall_hits::total                 1698051                       # number of overall hits
system.l2.ReadExReq_misses::cpu.data           475891                       # number of ReadExReq misses
system.l2.ReadExReq_misses::total              475891                       # number of ReadExReq misses
system.l2.ReadCleanReq_misses::cpu.inst          1808                       # number of ReadCleanReq misses
system.l2.ReadCleanReq_misses::total             1808                       # number of ReadCleanReq misses
system.l2.ReadSharedReq_misses::cpu.data       512698                       # number of ReadSharedReq misses
system.l2.ReadSharedReq_misses::total          512698                       # number of ReadSharedReq misses
system.l2.demand_misses::cpu.inst                1808                       # number of demand (read+write) misses
system.l2.demand_misses::cpu.data              988589                       # number of demand (read+write) misses
system.l2.demand_misses::total                 990397                       # number of demand (read+write) misses
system.l2.overall_misses::cpu.inst               1808                       # number of overall misses
system.l2.overall_misses::cpu.data             988589                       # number of overall misses
system.l2.overall_misses::total                990397                       # number of overall misses
system.l2.ReadExReq_miss_latency::cpu.data  44580576500                       # number of ReadExReq miss cycles
system.l2.ReadExReq_miss_latency::total   44580576500                       # number of ReadExReq miss cycles
system.l2.ReadCleanReq_miss_latency::cpu.inst    157568000                       # number of ReadCleanReq miss cycles
system.l2.ReadCleanReq_miss_latency::total    157568000                       # number of ReadCleanReq miss cycles
system.l2.ReadSharedReq_miss_latency::cpu.data  50498963500                       # number of ReadSharedReq miss cycles
system.l2.ReadSharedReq_miss_latency::total  50498963500                       # number of ReadSharedReq miss cycles
system.l2.demand_miss_latency::cpu.inst     157568000                       # number of demand (read+write) miss cycles
system.l2.demand_miss_latency::cpu.data   95079540000                       # number of demand (read+write) miss cycles
system.l2.demand_miss_latency::total      95237108000                       # number of demand (read+write) miss cycles
system.l2.overall_miss_latency::cpu.inst    157568000                       # number of overall miss cycles
system.l2.overall_miss_latency::cpu.data  95079540000                       # number of overall miss cycles
system.l2.overall_miss_latency::total     95237108000                       # number of overall miss cycles
system.l2.WritebackDirty_accesses::writebacks      1225517                       # number of WritebackDirty accesses(hits+misses)
system.l2.WritebackDirty_accesses::total      1225517                       # number of WritebackDirty accesses(hits+misses)
system.l2.WritebackClean_accesses::writebacks          191                       # number of WritebackClean accesses(hits+misses)
system.l2.WritebackClean_accesses::total          191                       # number of WritebackClean accesses(hits+misses)
system.l2.ReadExReq_accesses::cpu.data         744392                       # number of ReadExReq accesses(hits+misses)
system.l2.ReadExReq_accesses::total            744392                       # number of ReadExReq accesses(hits+misses)
system.l2.ReadCleanReq_accesses::cpu.inst         1810                       # number of ReadCleanReq accesses(hits+misses)
system.l2.ReadCleanReq_accesses::total           1810                       # number of ReadCleanReq accesses(hits+misses)
system.l2.ReadSharedReq_accesses::cpu.data      1942246                       # number of ReadSharedReq accesses(hits+misses)
system.l2.ReadSharedReq_accesses::total       1942246                       # number of ReadSharedReq accesses(hits+misses)
system.l2.demand_accesses::cpu.inst              1810                       # number of demand (read+write) accesses
system.l2.demand_accesses::cpu.data           2686638                       # number of demand (read+write) accesses
system.l2.demand_accesses::total              2688448                       # number of demand (read+write) accesses
system.l2.overall_accesses::cpu.inst             1810                       # number of overall (read+write) accesses
system.l2.overall_accesses::cpu.data          2686638                       # number of overall (read+write) accesses
system.l2.overall_accesses::total             2688448                       # number of overall (read+write) accesses
system.l2.ReadExReq_miss_rate::cpu.data      0.639302                       # miss rate for ReadExReq accesses
system.l2.ReadExReq_miss_rate::total         0.639302                       # miss rate for ReadExReq accesses
system.l2.ReadCleanReq_miss_rate::cpu.inst     0.998895                       # miss rate for ReadCleanReq accesses
system.l2.ReadCleanReq_miss_rate::total      0.998895                       # miss rate for ReadCleanReq accesses
system.l2.ReadSharedReq_miss_rate::cpu.data     0.263972                       # miss rate for ReadSharedReq accesses
system.l2.ReadSharedReq_miss_rate::total     0.263972                       # miss rate for ReadSharedReq accesses
system.l2.demand_miss_rate::cpu.inst         0.998895                       # miss rate for demand accesses
system.l2.demand_miss_rate::cpu.data         0.367965                       # miss rate for demand accesses
system.l2.demand_miss_rate::total            0.368390                       # miss rate for demand accesses
system.l2.overall_miss_rate::cpu.inst        0.998895                       # miss rate for overall accesses
system.l2.overall_miss_rate::cpu.data        0.367965                       # miss rate for overall accesses
system.l2.overall_miss_rate::total           0.368390                       # miss rate for overall accesses
system.l2.ReadExReq_avg_miss_latency::cpu.data 93678.124823                       # average ReadExReq miss latency
system.l2.ReadExReq_avg_miss_latency::total 93678.124823                       # average ReadExReq miss latency
system.l2.ReadCleanReq_avg_miss_latency::cpu.inst 87150.442478                       # average ReadCleanReq miss latency
system.l2.ReadCleanReq_avg_miss_latency::total 87150.442478                       # average ReadCleanReq miss latency
system.l2.ReadSharedReq_avg_miss_latency::cpu.data 98496.509641                       # average ReadSharedReq miss latency
system.l2.ReadSharedReq_avg_miss_latency::total 98496.509641                       # average ReadSharedReq miss latency
system.l2.demand_avg_miss_latency::cpu.inst 87150.442478                       # average overall miss latency
system.l2.demand_avg_miss_latency::cpu.data 96177.015929                       # average overall miss latency
system.l2.demand_avg_miss_latency::total 96160.537643                       # average overall miss latency
system.l2.overall_avg_miss_latency::cpu.inst 87150.442478                       # average overall miss latency
system.l2.overall_avg_miss_latency::cpu.data 96177.015929                       # average overall miss latency
system.l2.overall_avg_miss_latency::total 96160.537643                       # average overall miss latency
system.l2.blocked_cycles::no_mshrs                  0                       # number of cycles access was blocked
system.l2.blocked_cycles::no_targets                0                       # number of cycles access was blocked
system.l2.blocked::no_mshrs                         0                       # number of cycles access was blocked
system.l2.blocked::no_targets                       0                       # number of cycles access was blocked
system.l2.avg_blocked_cycles::no_mshrs            nan                       # average number of cycles each access was blocked
system.l2.avg_blocked_cycles::no_targets          nan                       # average number of cycles each access was blocked
system.l2.writebacks::writebacks               564524                       # number of writebacks
system.l2.writebacks::total                    564524                       # number of writebacks
system.l2.CleanEvict_mshr_misses::writebacks         5446                       # number of CleanEvict MSHR misses
system.l2.CleanEvict_mshr_misses::total          5446                       # number of CleanEvict MSHR misses
system.l2.ReadExReq_mshr_misses::cpu.data       475891                       # number of ReadExReq MSHR misses
system.l2.ReadExReq_mshr_misses::total         475891                       # number of ReadExReq MSHR misses
system.l2.ReadCleanReq_mshr_misses::cpu.inst         1808                       # number of ReadCleanReq MSHR misses
system.l2.ReadCleanReq_mshr_misses::total         1808                       # number of ReadCleanReq MSHR misses
system.l2.ReadSharedReq_mshr_misses::cpu.data       512698                       # number of ReadSharedReq MSHR misses
system.l2.ReadSharedReq_mshr_misses::total       512698                       # number of ReadSharedReq MSHR misses
system.l2.demand_mshr_misses::cpu.inst           1808                       # number of demand (read+write) MSHR misses
system.l2.demand_mshr_misses::cpu.data         988589                       # number of demand (read+write) MSHR misses
system.l2.demand_mshr_misses::total            990397                       # number of demand (read+write) MSHR misses
system.l2.overall_mshr_misses::cpu.inst          1808                       # number of overall MSHR misses
system.l2.overall_mshr_misses::cpu.data        988589                       # number of overall MSHR misses
system.l2.overall_mshr_misses::total           990397                       # number of overall MSHR misses
system.l2.ReadExReq_mshr_miss_latency::cpu.data  39821666500                       # number of ReadExReq MSHR miss cycles
system.l2.ReadExReq_mshr_miss_latency::total  39821666500                       # number of ReadExReq MSHR miss cycles
system.l2.ReadCleanReq_mshr_miss_latency::cpu.inst    139488000                       # number of ReadCleanReq MSHR miss cycles
system.l2.ReadCleanReq_mshr_miss_latency::total    139488000                       # number of ReadCleanReq MSHR miss cycles
system.l2.ReadSharedReq_mshr_miss_latency::cpu.data  45371983500                       # number of ReadSharedReq MSHR miss cycles
system.l2.ReadSharedReq_mshr_miss_latency::total  45371983500                       # number of ReadSharedReq MSHR miss cycles
system.l2.demand_mshr_miss_latency::cpu.inst    139488000                       # number of demand (read+write) MSHR miss cycles
system.l2.demand_mshr_miss_latency::cpu.data  85193650000                       # number of demand (read+write) MSHR miss cycles
system.l2.demand_mshr_miss_latency::total  85333138000                       # number of demand (read+write) MSHR miss cycles
system.l2.overall_mshr_miss_latency::cpu.inst    139488000                       # number of overall MSHR miss cycles
system.l2.overall_mshr_miss_latency::cpu.data  85193650000                       # number of overall MSHR miss cycles
system.l2.overall_mshr_miss_latency::total  85333138000                       # number of overall MSHR miss cycles
system.l2.CleanEvict_mshr_miss_rate::writebacks          inf                       # mshr miss rate for CleanEvict accesses
system.l2.CleanEvict_mshr_miss_rate::total          inf                       # mshr miss rate for CleanEvict accesses
system.l2.ReadExReq_mshr_miss_rate::cpu.data     0.639302                       # mshr miss rate for ReadExReq accesses
system.l2.ReadExReq_mshr_miss_rate::total     0.639302                       # mshr miss rate for ReadExReq accesses
system.l2.ReadCleanReq_mshr_miss_rate::cpu.inst     0.998895                       # mshr miss rate for ReadCleanReq accesses
system.l2.ReadCleanReq_mshr_miss_rate::total     0.998895                       # mshr miss rate for ReadCleanReq accesses
system.l2.ReadSharedReq_mshr_miss_rate::cpu.data     0.263972                       # mshr miss rate for ReadSharedReq accesses
system.l2.ReadSharedReq_mshr_miss_rate::total     0.263972                       # mshr miss rate for ReadSharedReq accesses
system.l2.demand_mshr_miss_rate::cpu.inst     0.998895                       # mshr miss rate for demand accesses
system.l2.demand_mshr_miss_rate::cpu.data     0.367965                       # mshr miss rate for demand accesses
system.l2.demand_mshr_miss_rate::total       0.368390                       # mshr miss rate for demand accesses
system.l2.overall_mshr_miss_rate::cpu.inst     0.998895                       # mshr miss rate for overall accesses
system.l2.overall_mshr_miss_rate::cpu.data     0.367965                       # mshr miss rate for overall accesses
system.l2.overall_mshr_miss_rate::total      0.368390                       # mshr miss rate for overall accesses
system.l2.ReadExReq_avg_mshr_miss_latency::cpu.data 83678.124823                       # average ReadExReq mshr miss latency
system.l2.ReadExReq_avg_mshr_miss_latency::total 83678.124823                       # average ReadExReq mshr miss latency
system.l2.ReadCleanReq_avg_mshr_miss_latency::cpu.inst 77150.442478                       # average ReadCleanReq mshr miss latency
system.l2.ReadCleanReq_avg_mshr_miss_latency::total 77150.442478                       # average ReadCleanReq mshr miss latency
system.l2.ReadSharedReq_avg_mshr_miss_latency::cpu.data 88496.509641                       # average ReadSharedReq mshr miss latency
system.l2.ReadSharedReq_avg_mshr_miss_latency::total 88496.509641                       # average ReadSharedReq mshr miss latency
system.l2.demand_avg_mshr_miss_latency::cpu.inst 77150.442478                       # average overall mshr miss latency
system.l2.demand_avg_mshr_miss_latency::cpu.data 86177.015929                       # average overall mshr miss latency
system.l2.demand_avg_mshr_miss_latency::total 86160.537643                       # average overall mshr miss latency
system.l2.overall_avg_mshr_miss_latency::cpu.inst 77150.442478                       # average overall mshr miss latency
system.l2.overall_avg_mshr_miss_latency::cpu.data 86177.015929                       # average overall mshr miss latency
system.l2.overall_avg_mshr_miss_latency::total 86160.537643                       # average overall mshr miss latency
system.membus.snoop_filter.tot_requests       1946468                       # Total number of requests made to the snoop filter.
system.membus.snoop_filter.hit_single_requests       956071                       # Number of requests hitting in the snoop filter with a single holder of the requested data.
system.membus.snoop_filter.hit_multi_requests            0                       # Number of requests hitting in the snoop filter with multiple (>1) holders of the requested data.
system.membus.snoop_filter.tot_snoops               0                       # Total number of snoops made to the snoop filter.
system.membus.snoop_filter.hit_single_snoops            0                       # Number of snoops hitting in the snoop filter with a single holder of the requested data.
system.membus.snoop_filter.hit_multi_snoops            0                       # Number of snoops hitting in the snoop filter with multiple (>1) holders of the requested data.
system.membus.pwrStateResidencyTicks::UNDEFINED 1099128796500                       # Cumulative time (in ticks) in various power states
system.membus.trans_dist::ReadResp             514506                       # Transaction distribution
system.membus.trans_dist::WritebackDirty       564524                       # Transaction distribution
system.membus.trans_dist::CleanEvict           391547                       # Transaction distribution
system.membus.trans_dist::ReadExReq            475891                       # Transaction distribution
system.membus.trans_dist::ReadExResp           475891                       # Transaction distribution
system.membus.trans_dist::ReadSharedReq        514506                       # Transaction distribution
system.membus.pkt_count_system.l2.mem_side::system.mem_ctrls.port      2936865                       # Packet count per connected master and slave (bytes)
system.membus.pkt_count_system.l2.mem_side::total      2936865                       # Packet count per connected master and slave (bytes)
system.membus.pkt_count::total                2936865                       # Packet count per connected master and slave (bytes)
system.membus.pkt_size_system.l2.mem_side::system.mem_ctrls.port     49757472                       # Cumulative packet size per connected master and slave (bytes)
system.membus.pkt_size_system.l2.mem_side::total     49757472                       # Cumulative packet size per connected master and slave (bytes)
system.membus.pkt_size::total                49757472                       # Cumulative packet size per connected master and slave (bytes)
system.membus.snoops                                0                       # Total snoops (count)
system.membus.snoopTraffic                          0                       # Total snoop traffic (bytes)
system.membus.snoop_fanout::samples            990397                       # Request fanout histogram
system.membus.snoop_fanout::mean                    0                       # Request fanout histogram
system.membus.snoop_fanout::stdev                   0                       # Request fanout histogram
system.membus.snoop_fanout::underflows              0      0.00%      0.00% # Request fanout histogram
system.membus.snoop_fanout::0                  990397    100.00%    100.00% # Request fanout histogram
system.membus.snoop_fanout::1                       0      0.00%    100.00% # Request fanout histogram
system.membus.snoop_fanout::overflows               0      0.00%    100.00% # Request fanout histogram
system.membus.snoop_fanout::min_value               0                       # Request fanout histogram
system.membus.snoop_fanout::max_value               0                       # Request fanout histogram
system.membus.snoop_fanout::total              990397                       # Request fanout histogram
system.membus.reqLayer2.occupancy          3075527000                       # Layer occupancy (ticks)
system.membus.reqLayer2.utilization               0.3                       # Layer utilization (%)
system.membus.respLayer1.occupancy         3364916750                       # Layer occupancy (ticks)
system.membus.respLayer1.utilization              0.3                       # Layer utilization (%)
system.tol2bus.snoop_filter.tot_requests      5373229                       # Total number of requests made to the snoop filter.
system.tol2bus.snoop_filter.hit_single_requests      2684781                       # Number of requests hitting in the snoop filter with a single holder of the requested data.
system.tol2bus.snoop_filter.hit_multi_requests            1                       # Number of requests hitting in the snoop filter with multiple (>1) holders of the requested data.
system.tol2bus.snoop_filter.tot_snoops          13057                       # Total number of snoops made to the snoop filter.
system.tol2bus.snoop_filter.hit_single_snoops        13057                       # Number of snoops hitting in the snoop filter with a single holder of the requested data.
system.tol2bus.snoop_filter.hit_multi_snoops            0                       # Number of snoops hitting in the snoop filter with multiple (>1) holders of the requested data.
system.tol2bus.pwrStateResidencyTicks::UNDEFINED 1099128796500                       # Cumulative time (in ticks) in various power states
system.tol2bus.trans_dist::ReadResp           1944056                       # Transaction distribution
system.tol2bus.trans_dist::WritebackDirty      1790041                       # Transaction distribution
system.tol2bus.trans_dist::WritebackClean          191                       # Transaction distribution
system.tol2bus.trans_dist::CleanEvict         1858231                       # Transaction distribution
system.tol2bus.trans_dist::ReadExReq           744392                       # Transaction distribution
system.tol2bus.trans_dist::ReadExResp          744392                       # Transaction distribution
system.tol2bus.trans_dist::ReadCleanReq          1810                       # Transaction distribution
system.tol2bus.trans_dist::ReadSharedReq      1942246                       # Transaction distribution
system.tol2bus.pkt_count_system.cpu.icache.mem_side::system.l2.cpu_side         3811                       # Packet count per connected master and slave (bytes)
system.tol2bus.pkt_count_system.cpu.dcache.mem_side::system.l2.cpu_side      8057866                       # Packet count per connected master and slave (bytes)
system.tol2bus.pkt_count::total               8061677                       # Packet count per connected master and slave (bytes)
system.tol2bus.pkt_size_system.cpu.icache.mem_side::system.l2.cpu_side        64032                       # Cumulative packet size per connected master and slave (bytes)
system.tol2bus.pkt_size_system.cpu.dcache.mem_side::system.l2.cpu_side    125188960                       # Cumulative packet size per connected master and slave (bytes)
system.tol2bus.pkt_size::total              125252992                       # Cumulative packet size per connected master and slave (bytes)
system.tol2bus.snoops                          963682                       # Total snoops (count)
system.tol2bus.snoopTraffic                  18064768                       # Total snoop traffic (bytes)
system.tol2bus.snoop_fanout::samples          3652130                       # Request fanout histogram
system.tol2bus.snoop_fanout::mean            0.003575                       # Request fanout histogram
system.tol2bus.snoop_fanout::stdev           0.059688                       # Request fanout histogram
system.tol2bus.snoop_fanout::underflows             0      0.00%      0.00% # Request fanout histogram
system.tol2bus.snoop_fanout::0                3639072     99.64%     99.64% # Request fanout histogram
system.tol2bus.snoop_fanout::1                  13058      0.36%    100.00% # Request fanout histogram
system.tol2bus.snoop_fanout::2                      0      0.00%    100.00% # Request fanout histogram
system.tol2bus.snoop_fanout::3                      0      0.00%    100.00% # Request fanout histogram
system.tol2bus.snoop_fanout::4                      0      0.00%    100.00% # Request fanout histogram
system.tol2bus.snoop_fanout::overflows              0      0.00%    100.00% # Request fanout histogram
system.tol2bus.snoop_fanout::min_value              0                       # Request fanout histogram
system.tol2bus.snoop_fanout::max_value              1                       # Request fanout histogram
system.tol2bus.snoop_fanout::total            3652130                       # Request fanout histogram
system.tol2bus.reqLayer0.occupancy         3299468500                       # Layer occupancy (ticks)
system.tol2bus.reqLayer0.utilization              0.3                       # Layer utilization (%)
system.tol2bus.respLayer0.occupancy           1810000                       # Layer occupancy (ticks)
system.tol2bus.respLayer0.utilization             0.0                       # Layer utilization (%)
system.tol2bus.respLayer1.occupancy        2686638000                       # Layer occupancy (ticks)
system.tol2bus.respLayer1.utilization             0.2                       # Layer utilization (%)

---------- End Simulation Statistics   ----------
