
---------- Begin Simulation Statistics ----------
sim_seconds                                  1.111350                       # Number of seconds simulated
sim_ticks                                1111349723500                       # Number of ticks simulated
final_tick                               1111349723500                       # Number of ticks from beginning of simulation (restored from checkpoints and never reset)
sim_freq                                 1000000000000                       # Frequency of simulated ticks
host_inst_rate                                 379848                       # Simulator instruction rate (inst/s)
host_op_rate                                   554921                       # Simulator op (including micro ops) rate (op/s)
host_tick_rate                              844288498                       # Simulator tick rate (ticks/s)
host_mem_usage                                 660008                       # Number of bytes of host memory used
host_seconds                                  1316.32                       # Real time elapsed on the host
sim_insts                                   500000001                       # Number of instructions simulated
sim_ops                                     730450447                       # Number of ops (including micro ops) simulated
system.voltage_domain.voltage                       1                       # Voltage in Volts
system.clk_domain.clock                          1000                       # Clock period in ticks
system.mem_ctrls.pwrStateResidencyTicks::UNDEFINED 1111349723500                       # Cumulative time (in ticks) in various power states
system.mem_ctrls.bytes_read::cpu.inst           59264                       # Number of bytes read from this memory
system.mem_ctrls.bytes_read::cpu.data        36358080                       # Number of bytes read from this memory
system.mem_ctrls.bytes_read::total           36417344                       # Number of bytes read from this memory
system.mem_ctrls.bytes_inst_read::cpu.inst        59264                       # Number of instructions bytes read from this memory
system.mem_ctrls.bytes_inst_read::total         59264                       # Number of instructions bytes read from this memory
system.mem_ctrls.bytes_written::writebacks     17882112                       # Number of bytes written to this memory
system.mem_ctrls.bytes_written::total        17882112                       # Number of bytes written to this memory
system.mem_ctrls.num_reads::cpu.inst             1852                       # Number of read requests responded to by this memory
system.mem_ctrls.num_reads::cpu.data          1136190                       # Number of read requests responded to by this memory
system.mem_ctrls.num_reads::total             1138042                       # Number of read requests responded to by this memory
system.mem_ctrls.num_writes::writebacks        558816                       # Number of write requests responded to by this memory
system.mem_ctrls.num_writes::total             558816                       # Number of write requests responded to by this memory
system.mem_ctrls.bw_read::cpu.inst              53326                       # Total read bandwidth from this memory (bytes/s)
system.mem_ctrls.bw_read::cpu.data           32715246                       # Total read bandwidth from this memory (bytes/s)
system.mem_ctrls.bw_read::total              32768573                       # Total read bandwidth from this memory (bytes/s)
system.mem_ctrls.bw_inst_read::cpu.inst         53326                       # Instruction read bandwidth from this memory (bytes/s)
system.mem_ctrls.bw_inst_read::total            53326                       # Instruction read bandwidth from this memory (bytes/s)
system.mem_ctrls.bw_write::writebacks        16090445                       # Write bandwidth from this memory (bytes/s)
system.mem_ctrls.bw_write::total             16090445                       # Write bandwidth from this memory (bytes/s)
system.mem_ctrls.bw_total::writebacks        16090445                       # Total bandwidth to/from this memory (bytes/s)
system.mem_ctrls.bw_total::cpu.inst             53326                       # Total bandwidth to/from this memory (bytes/s)
system.mem_ctrls.bw_total::cpu.data          32715246                       # Total bandwidth to/from this memory (bytes/s)
system.mem_ctrls.bw_total::total             48859018                       # Total bandwidth to/from this memory (bytes/s)
system.mem_ctrls.readReqs                     1138042                       # Number of read requests accepted
system.mem_ctrls.writeReqs                     558816                       # Number of write requests accepted
system.mem_ctrls.readBursts                   1138042                       # Number of DRAM read bursts, including those serviced by the write queue
system.mem_ctrls.writeBursts                   558816                       # Number of DRAM write bursts, including those merged in the write queue
system.mem_ctrls.bytesReadDRAM               72766400                       # Total number of bytes read from DRAM
system.mem_ctrls.bytesReadWrQ                   68288                       # Total number of bytes read from write queue
system.mem_ctrls.bytesWritten                30530752                       # Total number of bytes written to DRAM
system.mem_ctrls.bytesReadSys                36417344                       # Total read bytes from the system interface side
system.mem_ctrls.bytesWrittenSys             17882112                       # Total written bytes from the system interface side
system.mem_ctrls.servicedByWrQ                   1067                       # Number of DRAM read bursts serviced by the write queue
system.mem_ctrls.mergedWrBursts                 81750                       # Number of DRAM write bursts merged with an existing one
system.mem_ctrls.neitherReadNorWriteReqs            0                       # Number of requests that are neither read nor write
system.mem_ctrls.perBankRdBursts::0             73613                       # Per bank write bursts
system.mem_ctrls.perBankRdBursts::1             71844                       # Per bank write bursts
system.mem_ctrls.perBankRdBursts::2             72002                       # Per bank write bursts
system.mem_ctrls.perBankRdBursts::3             68977                       # Per bank write bursts
system.mem_ctrls.perBankRdBursts::4             68155                       # Per bank write bursts
system.mem_ctrls.perBankRdBursts::5             68066                       # Per bank write bursts
system.mem_ctrls.perBankRdBursts::6             70615                       # Per bank write bursts
system.mem_ctrls.perBankRdBursts::7             69290                       # Per bank write bursts
system.mem_ctrls.perBankRdBursts::8             66657                       # Per bank write bursts
system.mem_ctrls.perBankRdBursts::9             66699                       # Per bank write bursts
system.mem_ctrls.perBankRdBursts::10            70619                       # Per bank write bursts
system.mem_ctrls.perBankRdBursts::11            71662                       # Per bank write bursts
system.mem_ctrls.perBankRdBursts::12            73842                       # Per bank write bursts
system.mem_ctrls.perBankRdBursts::13            73441                       # Per bank write bursts
system.mem_ctrls.perBankRdBursts::14            73864                       # Per bank write bursts
system.mem_ctrls.perBankRdBursts::15            77629                       # Per bank write bursts
system.mem_ctrls.perBankWrBursts::0             30666                       # Per bank write bursts
system.mem_ctrls.perBankWrBursts::1             30252                       # Per bank write bursts
system.mem_ctrls.perBankWrBursts::2             31281                       # Per bank write bursts
system.mem_ctrls.perBankWrBursts::3             29079                       # Per bank write bursts
system.mem_ctrls.perBankWrBursts::4             28545                       # Per bank write bursts
system.mem_ctrls.perBankWrBursts::5             28040                       # Per bank write bursts
system.mem_ctrls.perBankWrBursts::6             29710                       # Per bank write bursts
system.mem_ctrls.perBankWrBursts::7             29270                       # Per bank write bursts
system.mem_ctrls.perBankWrBursts::8             28492                       # Per bank write bursts
system.mem_ctrls.perBankWrBursts::9             28557                       # Per bank write bursts
system.mem_ctrls.perBankWrBursts::10            29718                       # Per bank write bursts
system.mem_ctrls.perBankWrBursts::11            29606                       # Per bank write bursts
system.mem_ctrls.perBankWrBursts::12            30476                       # Per bank write bursts
system.mem_ctrls.perBankWrBursts::13            30552                       # Per bank write bursts
system.mem_ctrls.perBankWrBursts::14            30885                       # Per bank write bursts
system.mem_ctrls.perBankWrBursts::15            31914                       # Per bank write bursts
system.mem_ctrls.numRdRetry                         0                       # Number of times read queue was full causing retry
system.mem_ctrls.numWrRetry                         0                       # Number of times write queue was full causing retry
system.mem_ctrls.totGap                  1111347081500                       # Total gap between requests
system.mem_ctrls.readPktSize::0                     0                       # Read request sizes (log2)
system.mem_ctrls.readPktSize::1                     0                       # Read request sizes (log2)
system.mem_ctrls.readPktSize::2                     0                       # Read request sizes (log2)
system.mem_ctrls.readPktSize::3                     0                       # Read request sizes (log2)
system.mem_ctrls.readPktSize::4                     0                       # Read request sizes (log2)
system.mem_ctrls.readPktSize::5               1138042                       # Read request sizes (log2)
system.mem_ctrls.readPktSize::6                     0                       # Read request sizes (log2)
system.mem_ctrls.writePktSize::0                    0                       # Write request sizes (log2)
system.mem_ctrls.writePktSize::1                    0                       # Write request sizes (log2)
system.mem_ctrls.writePktSize::2                    0                       # Write request sizes (log2)
system.mem_ctrls.writePktSize::3                    0                       # Write request sizes (log2)
system.mem_ctrls.writePktSize::4                    0                       # Write request sizes (log2)
system.mem_ctrls.writePktSize::5               558816                       # Write request sizes (log2)
system.mem_ctrls.writePktSize::6                    0                       # Write request sizes (log2)
system.mem_ctrls.rdQLenPdf::0                 1120550                       # What read queue length does an incoming req see
system.mem_ctrls.rdQLenPdf::1                    8183                       # What read queue length does an incoming req see
system.mem_ctrls.rdQLenPdf::2                    8232                       # What read queue length does an incoming req see
system.mem_ctrls.rdQLenPdf::3                      10                       # What read queue length does an incoming req see
system.mem_ctrls.rdQLenPdf::4                       0                       # What read queue length does an incoming req see
system.mem_ctrls.rdQLenPdf::5                       0                       # What read queue length does an incoming req see
system.mem_ctrls.rdQLenPdf::6                       0                       # What read queue length does an incoming req see
system.mem_ctrls.rdQLenPdf::7                       0                       # What read queue length does an incoming req see
system.mem_ctrls.rdQLenPdf::8                       0                       # What read queue length does an incoming req see
system.mem_ctrls.rdQLenPdf::9                       0                       # What read queue length does an incoming req see
system.mem_ctrls.rdQLenPdf::10                      0                       # What read queue length does an incoming req see
system.mem_ctrls.rdQLenPdf::11                      0                       # What read queue length does an incoming req see
system.mem_ctrls.rdQLenPdf::12                      0                       # What read queue length does an incoming req see
system.mem_ctrls.rdQLenPdf::13                      0                       # What read queue length does an incoming req see
system.mem_ctrls.rdQLenPdf::14                      0                       # What read queue length does an incoming req see
system.mem_ctrls.rdQLenPdf::15                      0                       # What read queue length does an incoming req see
system.mem_ctrls.rdQLenPdf::16                      0                       # What read queue length does an incoming req see
system.mem_ctrls.rdQLenPdf::17                      0                       # What read queue length does an incoming req see
system.mem_ctrls.rdQLenPdf::18                      0                       # What read queue length does an incoming req see
system.mem_ctrls.rdQLenPdf::19                      0                       # What read queue length does an incoming req see
system.mem_ctrls.rdQLenPdf::20                      0                       # What read queue length does an incoming req see
system.mem_ctrls.rdQLenPdf::21                      0                       # What read queue length does an incoming req see
system.mem_ctrls.rdQLenPdf::22                      0                       # What read queue length does an incoming req see
system.mem_ctrls.rdQLenPdf::23                      0                       # What read queue length does an incoming req see
system.mem_ctrls.rdQLenPdf::24                      0                       # What read queue length does an incoming req see
system.mem_ctrls.rdQLenPdf::25                      0                       # What read queue length does an incoming req see
system.mem_ctrls.rdQLenPdf::26                      0                       # What read queue length does an incoming req see
system.mem_ctrls.rdQLenPdf::27                      0                       # What read queue length does an incoming req see
system.mem_ctrls.rdQLenPdf::28                      0                       # What read queue length does an incoming req see
system.mem_ctrls.rdQLenPdf::29                      0                       # What read queue length does an incoming req see
system.mem_ctrls.rdQLenPdf::30                      0                       # What read queue length does an incoming req see
system.mem_ctrls.rdQLenPdf::31                      0                       # What read queue length does an incoming req see
system.mem_ctrls.wrQLenPdf::0                       1                       # What write queue length does an incoming req see
system.mem_ctrls.wrQLenPdf::1                       1                       # What write queue length does an incoming req see
system.mem_ctrls.wrQLenPdf::2                       1                       # What write queue length does an incoming req see
system.mem_ctrls.wrQLenPdf::3                       1                       # What write queue length does an incoming req see
system.mem_ctrls.wrQLenPdf::4                       1                       # What write queue length does an incoming req see
system.mem_ctrls.wrQLenPdf::5                       1                       # What write queue length does an incoming req see
system.mem_ctrls.wrQLenPdf::6                       1                       # What write queue length does an incoming req see
system.mem_ctrls.wrQLenPdf::7                       1                       # What write queue length does an incoming req see
system.mem_ctrls.wrQLenPdf::8                       1                       # What write queue length does an incoming req see
system.mem_ctrls.wrQLenPdf::9                       1                       # What write queue length does an incoming req see
system.mem_ctrls.wrQLenPdf::10                      1                       # What write queue length does an incoming req see
system.mem_ctrls.wrQLenPdf::11                      1                       # What write queue length does an incoming req see
system.mem_ctrls.wrQLenPdf::12                      1                       # What write queue length does an incoming req see
system.mem_ctrls.wrQLenPdf::13                      1                       # What write queue length does an incoming req see
system.mem_ctrls.wrQLenPdf::14                      1                       # What write queue length does an incoming req see
system.mem_ctrls.wrQLenPdf::15                  16925                       # What write queue length does an incoming req see
system.mem_ctrls.wrQLenPdf::16                  17755                       # What write queue length does an incoming req see
system.mem_ctrls.wrQLenPdf::17                  27504                       # What write queue length does an incoming req see
system.mem_ctrls.wrQLenPdf::18                  27626                       # What write queue length does an incoming req see
system.mem_ctrls.wrQLenPdf::19                  27629                       # What write queue length does an incoming req see
system.mem_ctrls.wrQLenPdf::20                  27635                       # What write queue length does an incoming req see
system.mem_ctrls.wrQLenPdf::21                  27627                       # What write queue length does an incoming req see
system.mem_ctrls.wrQLenPdf::22                  27630                       # What write queue length does an incoming req see
system.mem_ctrls.wrQLenPdf::23                  27623                       # What write queue length does an incoming req see
system.mem_ctrls.wrQLenPdf::24                  27623                       # What write queue length does an incoming req see
system.mem_ctrls.wrQLenPdf::25                  27620                       # What write queue length does an incoming req see
system.mem_ctrls.wrQLenPdf::26                  27626                       # What write queue length does an incoming req see
system.mem_ctrls.wrQLenPdf::27                  27643                       # What write queue length does an incoming req see
system.mem_ctrls.wrQLenPdf::28                  27699                       # What write queue length does an incoming req see
system.mem_ctrls.wrQLenPdf::29                  27942                       # What write queue length does an incoming req see
system.mem_ctrls.wrQLenPdf::30                  27701                       # What write queue length does an incoming req see
system.mem_ctrls.wrQLenPdf::31                  27627                       # What write queue length does an incoming req see
system.mem_ctrls.wrQLenPdf::32                  27615                       # What write queue length does an incoming req see
system.mem_ctrls.wrQLenPdf::33                      1                       # What write queue length does an incoming req see
system.mem_ctrls.wrQLenPdf::34                      0                       # What write queue length does an incoming req see
system.mem_ctrls.wrQLenPdf::35                      0                       # What write queue length does an incoming req see
system.mem_ctrls.wrQLenPdf::36                      0                       # What write queue length does an incoming req see
system.mem_ctrls.wrQLenPdf::37                      0                       # What write queue length does an incoming req see
system.mem_ctrls.wrQLenPdf::38                      0                       # What write queue length does an incoming req see
system.mem_ctrls.wrQLenPdf::39                      0                       # What write queue length does an incoming req see
system.mem_ctrls.wrQLenPdf::40                      0                       # What write queue length does an incoming req see
system.mem_ctrls.wrQLenPdf::41                      0                       # What write queue length does an incoming req see
system.mem_ctrls.wrQLenPdf::42                      0                       # What write queue length does an incoming req see
system.mem_ctrls.wrQLenPdf::43                      0                       # What write queue length does an incoming req see
system.mem_ctrls.wrQLenPdf::44                      0                       # What write queue length does an incoming req see
system.mem_ctrls.wrQLenPdf::45                      0                       # What write queue length does an incoming req see
system.mem_ctrls.wrQLenPdf::46                      0                       # What write queue length does an incoming req see
system.mem_ctrls.wrQLenPdf::47                      0                       # What write queue length does an incoming req see
system.mem_ctrls.wrQLenPdf::48                      0                       # What write queue length does an incoming req see
system.mem_ctrls.wrQLenPdf::49                      0                       # What write queue length does an incoming req see
system.mem_ctrls.wrQLenPdf::50                      0                       # What write queue length does an incoming req see
system.mem_ctrls.wrQLenPdf::51                      0                       # What write queue length does an incoming req see
system.mem_ctrls.wrQLenPdf::52                      0                       # What write queue length does an incoming req see
system.mem_ctrls.wrQLenPdf::53                      0                       # What write queue length does an incoming req see
system.mem_ctrls.wrQLenPdf::54                      0                       # What write queue length does an incoming req see
system.mem_ctrls.wrQLenPdf::55                      0                       # What write queue length does an incoming req see
system.mem_ctrls.wrQLenPdf::56                      0                       # What write queue length does an incoming req see
system.mem_ctrls.wrQLenPdf::57                      0                       # What write queue length does an incoming req see
system.mem_ctrls.wrQLenPdf::58                      0                       # What write queue length does an incoming req see
system.mem_ctrls.wrQLenPdf::59                      0                       # What write queue length does an incoming req see
system.mem_ctrls.wrQLenPdf::60                      0                       # What write queue length does an incoming req see
system.mem_ctrls.wrQLenPdf::61                      0                       # What write queue length does an incoming req see
system.mem_ctrls.wrQLenPdf::62                      0                       # What write queue length does an incoming req see
system.mem_ctrls.wrQLenPdf::63                      0                       # What write queue length does an incoming req see
system.mem_ctrls.bytesPerActivate::samples       772656                       # Bytes accessed per row activation
system.mem_ctrls.bytesPerActivate::mean    133.690915                       # Bytes accessed per row activation
system.mem_ctrls.bytesPerActivate::gmean    95.199549                       # Bytes accessed per row activation
system.mem_ctrls.bytesPerActivate::stdev   168.485335                       # Bytes accessed per row activation
system.mem_ctrls.bytesPerActivate::0-127       523294     67.73%     67.73% # Bytes accessed per row activation
system.mem_ctrls.bytesPerActivate::128-255       155679     20.15%     87.88% # Bytes accessed per row activation
system.mem_ctrls.bytesPerActivate::256-383        37068      4.80%     92.67% # Bytes accessed per row activation
system.mem_ctrls.bytesPerActivate::384-511        15810      2.05%     94.72% # Bytes accessed per row activation
system.mem_ctrls.bytesPerActivate::512-639        16966      2.20%     96.91% # Bytes accessed per row activation
system.mem_ctrls.bytesPerActivate::640-767         6221      0.81%     97.72% # Bytes accessed per row activation
system.mem_ctrls.bytesPerActivate::768-895         2391      0.31%     98.03% # Bytes accessed per row activation
system.mem_ctrls.bytesPerActivate::896-1023         1779      0.23%     98.26% # Bytes accessed per row activation
system.mem_ctrls.bytesPerActivate::1024-1151        13448      1.74%    100.00% # Bytes accessed per row activation
system.mem_ctrls.bytesPerActivate::total       772656                       # Bytes accessed per row activation
system.mem_ctrls.rdPerTurnAround::samples        27615                       # Reads before turning the bus around for writes
system.mem_ctrls.rdPerTurnAround::mean      41.170885                       # Reads before turning the bus around for writes
system.mem_ctrls.rdPerTurnAround::gmean     30.153829                       # Reads before turning the bus around for writes
system.mem_ctrls.rdPerTurnAround::stdev    202.727930                       # Reads before turning the bus around for writes
system.mem_ctrls.rdPerTurnAround::0-511         27514     99.63%     99.63% # Reads before turning the bus around for writes
system.mem_ctrls.rdPerTurnAround::512-1023           61      0.22%     99.86% # Reads before turning the bus around for writes
system.mem_ctrls.rdPerTurnAround::1024-1535           27      0.10%     99.95% # Reads before turning the bus around for writes
system.mem_ctrls.rdPerTurnAround::1536-2047            4      0.01%     99.97% # Reads before turning the bus around for writes
system.mem_ctrls.rdPerTurnAround::2048-2559            1      0.00%     99.97% # Reads before turning the bus around for writes
system.mem_ctrls.rdPerTurnAround::2560-3071            1      0.00%     99.97% # Reads before turning the bus around for writes
system.mem_ctrls.rdPerTurnAround::6144-6655            1      0.00%     99.98% # Reads before turning the bus around for writes
system.mem_ctrls.rdPerTurnAround::7680-8191            1      0.00%     99.98% # Reads before turning the bus around for writes
system.mem_ctrls.rdPerTurnAround::10240-10751            1      0.00%     99.99% # Reads before turning the bus around for writes
system.mem_ctrls.rdPerTurnAround::11776-12287            1      0.00%     99.99% # Reads before turning the bus around for writes
system.mem_ctrls.rdPerTurnAround::13312-13823            1      0.00%     99.99% # Reads before turning the bus around for writes
system.mem_ctrls.rdPerTurnAround::14848-15359            1      0.00%    100.00% # Reads before turning the bus around for writes
system.mem_ctrls.rdPerTurnAround::15872-16383            1      0.00%    100.00% # Reads before turning the bus around for writes
system.mem_ctrls.rdPerTurnAround::total         27615                       # Reads before turning the bus around for writes
system.mem_ctrls.wrPerTurnAround::samples        27615                       # Writes before turning the bus around for reads
system.mem_ctrls.wrPerTurnAround::mean      17.274778                       # Writes before turning the bus around for reads
system.mem_ctrls.wrPerTurnAround::gmean     17.246762                       # Writes before turning the bus around for reads
system.mem_ctrls.wrPerTurnAround::stdev      0.974896                       # Writes before turning the bus around for reads
system.mem_ctrls.wrPerTurnAround::16             9861     35.71%     35.71% # Writes before turning the bus around for reads
system.mem_ctrls.wrPerTurnAround::17              811      2.94%     38.65% # Writes before turning the bus around for reads
system.mem_ctrls.wrPerTurnAround::18            16441     59.54%     98.18% # Writes before turning the bus around for reads
system.mem_ctrls.wrPerTurnAround::19              498      1.80%     99.99% # Writes before turning the bus around for reads
system.mem_ctrls.wrPerTurnAround::20                4      0.01%    100.00% # Writes before turning the bus around for reads
system.mem_ctrls.wrPerTurnAround::total         27615                       # Writes before turning the bus around for reads
system.mem_ctrls.totQLat                  29627341250                       # Total ticks spent queuing
system.mem_ctrls.totMemAccLat             50945622500                       # Total ticks spent from burst creation until serviced by the DRAM
system.mem_ctrls.totBusLat                 5684875000                       # Total ticks spent in databus transfers
system.mem_ctrls.avgQLat                     26058.04                       # Average queueing delay per DRAM burst
system.mem_ctrls.avgBusLat                    5000.00                       # Average bus latency per DRAM burst
system.mem_ctrls.avgMemAccLat                44808.04                       # Average memory access latency per DRAM burst
system.mem_ctrls.avgRdBW                        65.48                       # Average DRAM read bandwidth in MiByte/s
system.mem_ctrls.avgWrBW                        27.47                       # Average achieved write bandwidth in MiByte/s
system.mem_ctrls.avgRdBWSys                     32.77                       # Average system read bandwidth in MiByte/s
system.mem_ctrls.avgWrBWSys                     16.09                       # Average system write bandwidth in MiByte/s
system.mem_ctrls.peakBW                      12800.00                       # Theoretical peak bandwidth in MiByte/s
system.mem_ctrls.busUtil                         0.73                       # Data bus utilization in percentage
system.mem_ctrls.busUtilRead                     0.51                       # Data bus utilization in percentage for reads
system.mem_ctrls.busUtilWrite                    0.21                       # Data bus utilization in percentage for writes
system.mem_ctrls.avgRdQLen                       1.00                       # Average read queue length when enqueuing
system.mem_ctrls.avgWrQLen                      23.91                       # Average write queue length when enqueuing
system.mem_ctrls.readRowHits                   606790                       # Number of row buffer hits during reads
system.mem_ctrls.writeRowHits                  234571                       # Number of row buffer hits during writes
system.mem_ctrls.readRowHitRate                 53.37                       # Row buffer hit rate for reads
system.mem_ctrls.writeRowHitRate                49.17                       # Row buffer hit rate for writes
system.mem_ctrls.avgGap                     654944.07                       # Average gap between requests
system.mem_ctrls.pageHitRate                    52.13                       # Row buffer hit rate, read and write combined
system.mem_ctrls_0.actEnergy               2721189660                       # Energy for activate commands per rank (pJ)
system.mem_ctrls_0.preEnergy               1446342810                       # Energy for precharge commands per rank (pJ)
system.mem_ctrls_0.readEnergy              4016692680                       # Energy for read commands per rank (pJ)
system.mem_ctrls_0.writeEnergy             1236320460                       # Energy for write commands per rank (pJ)
system.mem_ctrls_0.refreshEnergy         47224635120.000008                       # Energy for refresh commands per rank (pJ)
system.mem_ctrls_0.actBackEnergy          25988124000                       # Energy for active background per rank (pJ)
system.mem_ctrls_0.preBackEnergy           1782677280                       # Energy for precharge background per rank (pJ)
system.mem_ctrls_0.actPowerDownEnergy    162752967540                       # Energy for active power-down per rank (pJ)
system.mem_ctrls_0.prePowerDownEnergy     47549756160                       # Energy for precharge power-down per rank (pJ)
system.mem_ctrls_0.selfRefreshEnergy     140812239960                       # Energy for self refresh per rank (pJ)
system.mem_ctrls_0.totalEnergy           435542928870                       # Total energy per rank (pJ)
system.mem_ctrls_0.averagePower            391.904472                       # Core power per rank (mW)
system.mem_ctrls_0.totalIdleTime         1049687791750                       # Total Idle time Per DRAM Rank
system.mem_ctrls_0.memoryStateTime::IDLE   2539801500                       # Time in different power states
system.mem_ctrls_0.memoryStateTime::REF   20024022000                       # Time in different power states
system.mem_ctrls_0.memoryStateTime::SREF 568947239250                       # Time in different power states
system.mem_ctrls_0.memoryStateTime::PRE_PDN 123828101250                       # Time in different power states
system.mem_ctrls_0.memoryStateTime::ACT   39095437250                       # Time in different power states
system.mem_ctrls_0.memoryStateTime::ACT_PDN 356915122250                       # Time in different power states
system.mem_ctrls_1.actEnergy               2795581320                       # Energy for activate commands per rank (pJ)
system.mem_ctrls_1.preEnergy               1485886710                       # Energy for precharge commands per rank (pJ)
system.mem_ctrls_1.readEnergy              4101308820                       # Energy for read commands per rank (pJ)
system.mem_ctrls_1.writeEnergy             1253844000                       # Energy for write commands per rank (pJ)
system.mem_ctrls_1.refreshEnergy         48208059120.000008                       # Energy for refresh commands per rank (pJ)
system.mem_ctrls_1.actBackEnergy          26550043110                       # Energy for active background per rank (pJ)
system.mem_ctrls_1.preBackEnergy           1811724000                       # Energy for precharge background per rank (pJ)
system.mem_ctrls_1.actPowerDownEnergy    165064749030                       # Energy for active power-down per rank (pJ)
system.mem_ctrls_1.prePowerDownEnergy     49187229600                       # Energy for precharge power-down per rank (pJ)
system.mem_ctrls_1.selfRefreshEnergy     138396863565                       # Energy for self refresh per rank (pJ)
system.mem_ctrls_1.totalEnergy           438867642225                       # Total energy per rank (pJ)
system.mem_ctrls_1.averagePower            394.896073                       # Core power per rank (mW)
system.mem_ctrls_1.totalIdleTime         1048342584000                       # Total Idle time Per DRAM Rank
system.mem_ctrls_1.memoryStateTime::IDLE   2560451500                       # Time in different power states
system.mem_ctrls_1.memoryStateTime::REF   20441546000                       # Time in different power states
system.mem_ctrls_1.memoryStateTime::SREF 558304499250                       # Time in different power states
system.mem_ctrls_1.memoryStateTime::PRE_PDN 128091866000                       # Time in different power states
system.mem_ctrls_1.memoryStateTime::ACT   39966927000                       # Time in different power states
system.mem_ctrls_1.memoryStateTime::ACT_PDN 361984433750                       # Time in different power states
system.pwrStateResidencyTicks::UNDEFINED 1111349723500                       # Cumulative time (in ticks) in various power states
system.cpu_voltage_domain.voltage                   1                       # Voltage in Volts
system.cpu_clk_domain.clock                       500                       # Clock period in ticks
system.cpu.dtb.walker.pwrStateResidencyTicks::UNDEFINED 1111349723500                       # Cumulative time (in ticks) in various power states
system.cpu.apic_clk_domain.clock                 8000                       # Clock period in ticks
system.cpu.interrupts.pwrStateResidencyTicks::UNDEFINED 1111349723500                       # Cumulative time (in ticks) in various power states
system.cpu.itb.walker.pwrStateResidencyTicks::UNDEFINED 1111349723500                       # Cumulative time (in ticks) in various power states
system.cpu.workload.num_syscalls                   86                       # Number of system calls
system.cpu.pwrStateResidencyTicks::ON    1111349723500                       # Cumulative time (in ticks) in various power states
system.cpu.numCycles                       2222699447                       # number of cpu cycles simulated
system.cpu.numWorkItemsStarted                      0                       # number of work items this cpu started
system.cpu.numWorkItemsCompleted                    0                       # number of work items this cpu completed
system.cpu.committedInsts                   500000001                       # Number of instructions committed
system.cpu.committedOps                     730450447                       # Number of ops (including micro ops) committed
system.cpu.num_int_alu_accesses             729688906                       # Number of integer alu accesses
system.cpu.num_fp_alu_accesses                    663                       # Number of float alu accesses
system.cpu.num_func_calls                     1453961                       # number of times a function call or return occured
system.cpu.num_conditional_control_insts     31770496                       # number of instructions that are conditional controls
system.cpu.num_int_insts                    729688906                       # number of integer instructions
system.cpu.num_fp_insts                           663                       # number of float instructions
system.cpu.num_int_register_reads          1698743411                       # number of times the integer registers were read
system.cpu.num_int_register_writes          621892950                       # number of times the integer registers were written
system.cpu.num_fp_register_reads                 1009                       # number of times the floating registers were read
system.cpu.num_fp_register_writes                 429                       # number of times the floating registers were written
system.cpu.num_cc_register_reads            180840559                       # number of times the CC registers were read
system.cpu.num_cc_register_writes           276245121                       # number of times the CC registers were written
system.cpu.num_mem_refs                     295985461                       # number of memory refs
system.cpu.num_load_insts                   225946751                       # Number of load instructions
system.cpu.num_store_insts                   70038710                       # Number of store instructions
system.cpu.num_idle_cycles                          0                       # Number of idle cycles
system.cpu.num_busy_cycles                 2222699447                       # Number of busy cycles
system.cpu.not_idle_fraction                        1                       # Percentage of non-idle cycles
system.cpu.idle_fraction                            0                       # Percentage of idle cycles
system.cpu.Branches                          37843296                       # Number of branches fetched
system.cpu.op_class::No_OpClass                 94740      0.01%      0.01% # Class of executed instruction
system.cpu.op_class::IntAlu                 434349067     59.46%     59.48% # Class of executed instruction
system.cpu.op_class::IntMult                    20662      0.00%     59.48% # Class of executed instruction
system.cpu.op_class::IntDiv                       119      0.00%     59.48% # Class of executed instruction
system.cpu.op_class::FloatAdd                     398      0.00%     59.48% # Class of executed instruction
system.cpu.op_class::FloatCmp                       0      0.00%     59.48% # Class of executed instruction
system.cpu.op_class::FloatCvt                       0      0.00%     59.48% # Class of executed instruction
system.cpu.op_class::FloatMult                      0      0.00%     59.48% # Class of executed instruction
system.cpu.op_class::FloatDiv                       0      0.00%     59.48% # Class of executed instruction
system.cpu.op_class::FloatSqrt                      0      0.00%     59.48% # Class of executed instruction
system.cpu.op_class::SimdAdd                        0      0.00%     59.48% # Class of executed instruction
system.cpu.op_class::SimdAddAcc                     0      0.00%     59.48% # Class of executed instruction
system.cpu.op_class::SimdAlu                        0      0.00%     59.48% # Class of executed instruction
system.cpu.op_class::SimdCmp                        0      0.00%     59.48% # Class of executed instruction
system.cpu.op_class::SimdCvt                        0      0.00%     59.48% # Class of executed instruction
system.cpu.op_class::SimdMisc                       0      0.00%     59.48% # Class of executed instruction
system.cpu.op_class::SimdMult                       0      0.00%     59.48% # Class of executed instruction
system.cpu.op_class::SimdMultAcc                    0      0.00%     59.48% # Class of executed instruction
system.cpu.op_class::SimdShift                      0      0.00%     59.48% # Class of executed instruction
system.cpu.op_class::SimdShiftAcc                   0      0.00%     59.48% # Class of executed instruction
system.cpu.op_class::SimdSqrt                       0      0.00%     59.48% # Class of executed instruction
system.cpu.op_class::SimdFloatAdd                   0      0.00%     59.48% # Class of executed instruction
system.cpu.op_class::SimdFloatAlu                   0      0.00%     59.48% # Class of executed instruction
system.cpu.op_class::SimdFloatCmp                   0      0.00%     59.48% # Class of executed instruction
system.cpu.op_class::SimdFloatCvt                   0      0.00%     59.48% # Class of executed instruction
system.cpu.op_class::SimdFloatDiv                   0      0.00%     59.48% # Class of executed instruction
system.cpu.op_class::SimdFloatMisc                  0      0.00%     59.48% # Class of executed instruction
system.cpu.op_class::SimdFloatMult                  0      0.00%     59.48% # Class of executed instruction
system.cpu.op_class::SimdFloatMultAcc               0      0.00%     59.48% # Class of executed instruction
system.cpu.op_class::SimdFloatSqrt                  0      0.00%     59.48% # Class of executed instruction
system.cpu.op_class::MemRead                225946751     30.93%     90.41% # Class of executed instruction
system.cpu.op_class::MemWrite                70038710      9.59%    100.00% # Class of executed instruction
system.cpu.op_class::IprAccess                      0      0.00%    100.00% # Class of executed instruction
system.cpu.op_class::InstPrefetch                   0      0.00%    100.00% # Class of executed instruction
system.cpu.op_class::total                  730450447                       # Class of executed instruction
system.cpu.dcache.tags.pwrStateResidencyTicks::UNDEFINED 1111349723500                       # Cumulative time (in ticks) in various power states
system.cpu.dcache.tags.replacements           2695182                       # number of replacements
system.cpu.dcache.tags.tagsinuse          4083.223908                       # Cycle average of tags in use
system.cpu.dcache.tags.total_refs           293286196                       # Total number of references to valid blocks.
system.cpu.dcache.tags.sampled_refs           2699278                       # Sample count of references to valid blocks.
system.cpu.dcache.tags.avg_refs            108.653572                       # Average number of references to valid blocks.
system.cpu.dcache.tags.warmup_cycle        3999940500                       # Cycle when the warmup percentage was hit.
system.cpu.dcache.tags.occ_blocks::cpu.data  4083.223908                       # Average occupied blocks per requestor
system.cpu.dcache.tags.occ_percent::cpu.data     0.996881                       # Average percentage of cache occupancy
system.cpu.dcache.tags.occ_percent::total     0.996881                       # Average percentage of cache occupancy
system.cpu.dcache.tags.occ_task_id_blocks::1024         4096                       # Occupied blocks per task id
system.cpu.dcache.tags.age_task_id_blocks_1024::0            1                       # Occupied blocks per task id
system.cpu.dcache.tags.age_task_id_blocks_1024::1            3                       # Occupied blocks per task id
system.cpu.dcache.tags.age_task_id_blocks_1024::2           32                       # Occupied blocks per task id
system.cpu.dcache.tags.age_task_id_blocks_1024::3         2722                       # Occupied blocks per task id
system.cpu.dcache.tags.age_task_id_blocks_1024::4         1338                       # Occupied blocks per task id
system.cpu.dcache.tags.occ_task_id_percent::1024            1                       # Percentage of cache occupancy per task id
system.cpu.dcache.tags.tag_accesses         298684752                       # Number of tag accesses
system.cpu.dcache.tags.data_accesses        298684752                       # Number of data accesses
system.cpu.dcache.pwrStateResidencyTicks::UNDEFINED 1111349723500                       # Cumulative time (in ticks) in various power states
system.cpu.dcache.ReadReq_hits::cpu.data    223993738                       # number of ReadReq hits
system.cpu.dcache.ReadReq_hits::total       223993738                       # number of ReadReq hits
system.cpu.dcache.WriteReq_hits::cpu.data     69292458                       # number of WriteReq hits
system.cpu.dcache.WriteReq_hits::total       69292458                       # number of WriteReq hits
system.cpu.dcache.demand_hits::cpu.data     293286196                       # number of demand (read+write) hits
system.cpu.dcache.demand_hits::total        293286196                       # number of demand (read+write) hits
system.cpu.dcache.overall_hits::cpu.data    293286196                       # number of overall hits
system.cpu.dcache.overall_hits::total       293286196                       # number of overall hits
system.cpu.dcache.ReadReq_misses::cpu.data      1936640                       # number of ReadReq misses
system.cpu.dcache.ReadReq_misses::total       1936640                       # number of ReadReq misses
system.cpu.dcache.WriteReq_misses::cpu.data       746254                       # number of WriteReq misses
system.cpu.dcache.WriteReq_misses::total       746254                       # number of WriteReq misses
system.cpu.dcache.SoftPFReq_misses::cpu.data        16384                       # number of SoftPFReq misses
system.cpu.dcache.SoftPFReq_misses::total        16384                       # number of SoftPFReq misses
system.cpu.dcache.demand_misses::cpu.data      2682894                       # number of demand (read+write) misses
system.cpu.dcache.demand_misses::total        2682894                       # number of demand (read+write) misses
system.cpu.dcache.overall_misses::cpu.data      2699278                       # number of overall misses
system.cpu.dcache.overall_misses::total       2699278                       # number of overall misses
system.cpu.dcache.ReadReq_miss_latency::cpu.data  83237752000                       # number of ReadReq miss cycles
system.cpu.dcache.ReadReq_miss_latency::total  83237752000                       # number of ReadReq miss cycles
system.cpu.dcache.WriteReq_miss_latency::cpu.data  47240575500                       # number of WriteReq miss cycles
system.cpu.dcache.WriteReq_miss_latency::total  47240575500                       # number of WriteReq miss cycles
system.cpu.dcache.demand_miss_latency::cpu.data 130478327500                       # number of demand (read+write) miss cycles
system.cpu.dcache.demand_miss_latency::total 130478327500                       # number of demand (read+write) miss cycles
system.cpu.dcache.overall_miss_latency::cpu.data 130478327500                       # number of overall miss cycles
system.cpu.dcache.overall_miss_latency::total 130478327500                       # number of overall miss cycles
system.cpu.dcache.ReadReq_accesses::cpu.data    225930378                       # number of ReadReq accesses(hits+misses)
system.cpu.dcache.ReadReq_accesses::total    225930378                       # number of ReadReq accesses(hits+misses)
system.cpu.dcache.WriteReq_accesses::cpu.data     70038712                       # number of WriteReq accesses(hits+misses)
system.cpu.dcache.WriteReq_accesses::total     70038712                       # number of WriteReq accesses(hits+misses)
system.cpu.dcache.SoftPFReq_accesses::cpu.data        16384                       # number of SoftPFReq accesses(hits+misses)
system.cpu.dcache.SoftPFReq_accesses::total        16384                       # number of SoftPFReq accesses(hits+misses)
system.cpu.dcache.demand_accesses::cpu.data    295969090                       # number of demand (read+write) accesses
system.cpu.dcache.demand_accesses::total    295969090                       # number of demand (read+write) accesses
system.cpu.dcache.overall_accesses::cpu.data    295985474                       # number of overall (read+write) accesses
system.cpu.dcache.overall_accesses::total    295985474                       # number of overall (read+write) accesses
system.cpu.dcache.ReadReq_miss_rate::cpu.data     0.008572                       # miss rate for ReadReq accesses
system.cpu.dcache.ReadReq_miss_rate::total     0.008572                       # miss rate for ReadReq accesses
system.cpu.dcache.WriteReq_miss_rate::cpu.data     0.010655                       # miss rate for WriteReq accesses
system.cpu.dcache.WriteReq_miss_rate::total     0.010655                       # miss rate for WriteReq accesses
system.cpu.dcache.SoftPFReq_miss_rate::cpu.data            1                       # miss rate for SoftPFReq accesses
system.cpu.dcache.SoftPFReq_miss_rate::total            1                       # miss rate for SoftPFReq accesses
system.cpu.dcache.demand_miss_rate::cpu.data     0.009065                       # miss rate for demand accesses
system.cpu.dcache.demand_miss_rate::total     0.009065                       # miss rate for demand accesses
system.cpu.dcache.overall_miss_rate::cpu.data     0.009120                       # miss rate for overall accesses
system.cpu.dcache.overall_miss_rate::total     0.009120                       # miss rate for overall accesses
system.cpu.dcache.ReadReq_avg_miss_latency::cpu.data 42980.498182                       # average ReadReq miss latency
system.cpu.dcache.ReadReq_avg_miss_latency::total 42980.498182                       # average ReadReq miss latency
system.cpu.dcache.WriteReq_avg_miss_latency::cpu.data 63303.614453                       # average WriteReq miss latency
system.cpu.dcache.WriteReq_avg_miss_latency::total 63303.614453                       # average WriteReq miss latency
system.cpu.dcache.demand_avg_miss_latency::cpu.data 48633.426255                       # average overall miss latency
system.cpu.dcache.demand_avg_miss_latency::total 48633.426255                       # average overall miss latency
system.cpu.dcache.overall_avg_miss_latency::cpu.data 48338.232483                       # average overall miss latency
system.cpu.dcache.overall_avg_miss_latency::total 48338.232483                       # average overall miss latency
system.cpu.dcache.blocked_cycles::no_mshrs         2100                       # number of cycles access was blocked
system.cpu.dcache.blocked_cycles::no_targets            0                       # number of cycles access was blocked
system.cpu.dcache.blocked::no_mshrs                10                       # number of cycles access was blocked
system.cpu.dcache.blocked::no_targets               0                       # number of cycles access was blocked
system.cpu.dcache.avg_blocked_cycles::no_mshrs          210                       # average number of cycles each access was blocked
system.cpu.dcache.avg_blocked_cycles::no_targets          nan                       # average number of cycles each access was blocked
system.cpu.dcache.writebacks::writebacks      1290321                       # number of writebacks
system.cpu.dcache.writebacks::total           1290321                       # number of writebacks
system.cpu.dcache.ReadReq_mshr_misses::cpu.data      1936640                       # number of ReadReq MSHR misses
system.cpu.dcache.ReadReq_mshr_misses::total      1936640                       # number of ReadReq MSHR misses
system.cpu.dcache.WriteReq_mshr_misses::cpu.data       746254                       # number of WriteReq MSHR misses
system.cpu.dcache.WriteReq_mshr_misses::total       746254                       # number of WriteReq MSHR misses
system.cpu.dcache.SoftPFReq_mshr_misses::cpu.data        16384                       # number of SoftPFReq MSHR misses
system.cpu.dcache.SoftPFReq_mshr_misses::total        16384                       # number of SoftPFReq MSHR misses
system.cpu.dcache.demand_mshr_misses::cpu.data      2682894                       # number of demand (read+write) MSHR misses
system.cpu.dcache.demand_mshr_misses::total      2682894                       # number of demand (read+write) MSHR misses
system.cpu.dcache.overall_mshr_misses::cpu.data      2699278                       # number of overall MSHR misses
system.cpu.dcache.overall_mshr_misses::total      2699278                       # number of overall MSHR misses
system.cpu.dcache.ReadReq_mshr_miss_latency::cpu.data  81301112000                       # number of ReadReq MSHR miss cycles
system.cpu.dcache.ReadReq_mshr_miss_latency::total  81301112000                       # number of ReadReq MSHR miss cycles
system.cpu.dcache.WriteReq_mshr_miss_latency::cpu.data  46494321500                       # number of WriteReq MSHR miss cycles
system.cpu.dcache.WriteReq_mshr_miss_latency::total  46494321500                       # number of WriteReq MSHR miss cycles
system.cpu.dcache.SoftPFReq_mshr_miss_latency::cpu.data   1361713000                       # number of SoftPFReq MSHR miss cycles
system.cpu.dcache.SoftPFReq_mshr_miss_latency::total   1361713000                       # number of SoftPFReq MSHR miss cycles
system.cpu.dcache.demand_mshr_miss_latency::cpu.data 127795433500                       # number of demand (read+write) MSHR miss cycles
system.cpu.dcache.demand_mshr_miss_latency::total 127795433500                       # number of demand (read+write) MSHR miss cycles
system.cpu.dcache.overall_mshr_miss_latency::cpu.data 129157146500                       # number of overall MSHR miss cycles
system.cpu.dcache.overall_mshr_miss_latency::total 129157146500                       # number of overall MSHR miss cycles
system.cpu.dcache.ReadReq_mshr_miss_rate::cpu.data     0.008572                       # mshr miss rate for ReadReq accesses
system.cpu.dcache.ReadReq_mshr_miss_rate::total     0.008572                       # mshr miss rate for ReadReq accesses
system.cpu.dcache.WriteReq_mshr_miss_rate::cpu.data     0.010655                       # mshr miss rate for WriteReq accesses
system.cpu.dcache.WriteReq_mshr_miss_rate::total     0.010655                       # mshr miss rate for WriteReq accesses
system.cpu.dcache.SoftPFReq_mshr_miss_rate::cpu.data            1                       # mshr miss rate for SoftPFReq accesses
system.cpu.dcache.SoftPFReq_mshr_miss_rate::total            1                       # mshr miss rate for SoftPFReq accesses
system.cpu.dcache.demand_mshr_miss_rate::cpu.data     0.009065                       # mshr miss rate for demand accesses
system.cpu.dcache.demand_mshr_miss_rate::total     0.009065                       # mshr miss rate for demand accesses
system.cpu.dcache.overall_mshr_miss_rate::cpu.data     0.009120                       # mshr miss rate for overall accesses
system.cpu.dcache.overall_mshr_miss_rate::total     0.009120                       # mshr miss rate for overall accesses
system.cpu.dcache.ReadReq_avg_mshr_miss_latency::cpu.data 41980.498182                       # average ReadReq mshr miss latency
system.cpu.dcache.ReadReq_avg_mshr_miss_latency::total 41980.498182                       # average ReadReq mshr miss latency
system.cpu.dcache.WriteReq_avg_mshr_miss_latency::cpu.data 62303.614453                       # average WriteReq mshr miss latency
system.cpu.dcache.WriteReq_avg_mshr_miss_latency::total 62303.614453                       # average WriteReq mshr miss latency
system.cpu.dcache.SoftPFReq_avg_mshr_miss_latency::cpu.data 83112.365723                       # average SoftPFReq mshr miss latency
system.cpu.dcache.SoftPFReq_avg_mshr_miss_latency::total 83112.365723                       # average SoftPFReq mshr miss latency
system.cpu.dcache.demand_avg_mshr_miss_latency::cpu.data 47633.426255                       # average overall mshr miss latency
system.cpu.dcache.demand_avg_mshr_miss_latency::total 47633.426255                       # average overall mshr miss latency
system.cpu.dcache.overall_avg_mshr_miss_latency::cpu.data 47848.775302                       # average overall mshr miss latency
system.cpu.dcache.overall_avg_mshr_miss_latency::total 47848.775302                       # average overall mshr miss latency
system.cpu.dtb_walker_cache.tags.pwrStateResidencyTicks::UNDEFINED 1111349723500                       # Cumulative time (in ticks) in various power states
system.cpu.dtb_walker_cache.tags.replacements            0                       # number of replacements
system.cpu.dtb_walker_cache.tags.tagsinuse            0                       # Cycle average of tags in use
system.cpu.dtb_walker_cache.tags.total_refs            0                       # Total number of references to valid blocks.
system.cpu.dtb_walker_cache.tags.sampled_refs            0                       # Sample count of references to valid blocks.
system.cpu.dtb_walker_cache.tags.avg_refs          nan                       # Average number of references to valid blocks.
system.cpu.dtb_walker_cache.tags.warmup_cycle            0                       # Cycle when the warmup percentage was hit.
system.cpu.dtb_walker_cache.tags.tag_accesses            0                       # Number of tag accesses
system.cpu.dtb_walker_cache.tags.data_accesses            0                       # Number of data accesses
system.cpu.dtb_walker_cache.pwrStateResidencyTicks::UNDEFINED 1111349723500                       # Cumulative time (in ticks) in various power states
system.cpu.dtb_walker_cache.blocked_cycles::no_mshrs            0                       # number of cycles access was blocked
system.cpu.dtb_walker_cache.blocked_cycles::no_targets            0                       # number of cycles access was blocked
system.cpu.dtb_walker_cache.blocked::no_mshrs            0                       # number of cycles access was blocked
system.cpu.dtb_walker_cache.blocked::no_targets            0                       # number of cycles access was blocked
system.cpu.dtb_walker_cache.avg_blocked_cycles::no_mshrs          nan                       # average number of cycles each access was blocked
system.cpu.dtb_walker_cache.avg_blocked_cycles::no_targets          nan                       # average number of cycles each access was blocked
system.cpu.icache.tags.pwrStateResidencyTicks::UNDEFINED 1111349723500                       # Cumulative time (in ticks) in various power states
system.cpu.icache.tags.replacements              1254                       # number of replacements
system.cpu.icache.tags.tagsinuse           768.926219                       # Cycle average of tags in use
system.cpu.icache.tags.total_refs           687395728                       # Total number of references to valid blocks.
system.cpu.icache.tags.sampled_refs              2134                       # Sample count of references to valid blocks.
system.cpu.icache.tags.avg_refs          322116.086223                       # Average number of references to valid blocks.
system.cpu.icache.tags.warmup_cycle                 0                       # Cycle when the warmup percentage was hit.
system.cpu.icache.tags.occ_blocks::cpu.inst   768.926219                       # Average occupied blocks per requestor
system.cpu.icache.tags.occ_percent::cpu.inst     0.750905                       # Average percentage of cache occupancy
system.cpu.icache.tags.occ_percent::total     0.750905                       # Average percentage of cache occupancy
system.cpu.icache.tags.occ_task_id_blocks::1024          880                       # Occupied blocks per task id
system.cpu.icache.tags.age_task_id_blocks_1024::1           14                       # Occupied blocks per task id
system.cpu.icache.tags.age_task_id_blocks_1024::3           51                       # Occupied blocks per task id
system.cpu.icache.tags.age_task_id_blocks_1024::4          815                       # Occupied blocks per task id
system.cpu.icache.tags.occ_task_id_percent::1024     0.859375                       # Percentage of cache occupancy per task id
system.cpu.icache.tags.tag_accesses         687399996                       # Number of tag accesses
system.cpu.icache.tags.data_accesses        687399996                       # Number of data accesses
system.cpu.icache.pwrStateResidencyTicks::UNDEFINED 1111349723500                       # Cumulative time (in ticks) in various power states
system.cpu.icache.ReadReq_hits::cpu.inst    687395728                       # number of ReadReq hits
system.cpu.icache.ReadReq_hits::total       687395728                       # number of ReadReq hits
system.cpu.icache.demand_hits::cpu.inst     687395728                       # number of demand (read+write) hits
system.cpu.icache.demand_hits::total        687395728                       # number of demand (read+write) hits
system.cpu.icache.overall_hits::cpu.inst    687395728                       # number of overall hits
system.cpu.icache.overall_hits::total       687395728                       # number of overall hits
system.cpu.icache.ReadReq_misses::cpu.inst         2134                       # number of ReadReq misses
system.cpu.icache.ReadReq_misses::total          2134                       # number of ReadReq misses
system.cpu.icache.demand_misses::cpu.inst         2134                       # number of demand (read+write) misses
system.cpu.icache.demand_misses::total           2134                       # number of demand (read+write) misses
system.cpu.icache.overall_misses::cpu.inst         2134                       # number of overall misses
system.cpu.icache.overall_misses::total          2134                       # number of overall misses
system.cpu.icache.ReadReq_miss_latency::cpu.inst    172064500                       # number of ReadReq miss cycles
system.cpu.icache.ReadReq_miss_latency::total    172064500                       # number of ReadReq miss cycles
system.cpu.icache.demand_miss_latency::cpu.inst    172064500                       # number of demand (read+write) miss cycles
system.cpu.icache.demand_miss_latency::total    172064500                       # number of demand (read+write) miss cycles
system.cpu.icache.overall_miss_latency::cpu.inst    172064500                       # number of overall miss cycles
system.cpu.icache.overall_miss_latency::total    172064500                       # number of overall miss cycles
system.cpu.icache.ReadReq_accesses::cpu.inst    687397862                       # number of ReadReq accesses(hits+misses)
system.cpu.icache.ReadReq_accesses::total    687397862                       # number of ReadReq accesses(hits+misses)
system.cpu.icache.demand_accesses::cpu.inst    687397862                       # number of demand (read+write) accesses
system.cpu.icache.demand_accesses::total    687397862                       # number of demand (read+write) accesses
system.cpu.icache.overall_accesses::cpu.inst    687397862                       # number of overall (read+write) accesses
system.cpu.icache.overall_accesses::total    687397862                       # number of overall (read+write) accesses
system.cpu.icache.ReadReq_miss_rate::cpu.inst     0.000003                       # miss rate for ReadReq accesses
system.cpu.icache.ReadReq_miss_rate::total     0.000003                       # miss rate for ReadReq accesses
system.cpu.icache.demand_miss_rate::cpu.inst     0.000003                       # miss rate for demand accesses
system.cpu.icache.demand_miss_rate::total     0.000003                       # miss rate for demand accesses
system.cpu.icache.overall_miss_rate::cpu.inst     0.000003                       # miss rate for overall accesses
system.cpu.icache.overall_miss_rate::total     0.000003                       # miss rate for overall accesses
system.cpu.icache.ReadReq_avg_miss_latency::cpu.inst 80630.037488                       # average ReadReq miss latency
system.cpu.icache.ReadReq_avg_miss_latency::total 80630.037488                       # average ReadReq miss latency
system.cpu.icache.demand_avg_miss_latency::cpu.inst 80630.037488                       # average overall miss latency
system.cpu.icache.demand_avg_miss_latency::total 80630.037488                       # average overall miss latency
system.cpu.icache.overall_avg_miss_latency::cpu.inst 80630.037488                       # average overall miss latency
system.cpu.icache.overall_avg_miss_latency::total 80630.037488                       # average overall miss latency
system.cpu.icache.blocked_cycles::no_mshrs            0                       # number of cycles access was blocked
system.cpu.icache.blocked_cycles::no_targets            0                       # number of cycles access was blocked
system.cpu.icache.blocked::no_mshrs                 0                       # number of cycles access was blocked
system.cpu.icache.blocked::no_targets               0                       # number of cycles access was blocked
system.cpu.icache.avg_blocked_cycles::no_mshrs          nan                       # average number of cycles each access was blocked
system.cpu.icache.avg_blocked_cycles::no_targets          nan                       # average number of cycles each access was blocked
system.cpu.icache.writebacks::writebacks         1254                       # number of writebacks
system.cpu.icache.writebacks::total              1254                       # number of writebacks
system.cpu.icache.ReadReq_mshr_misses::cpu.inst         2134                       # number of ReadReq MSHR misses
system.cpu.icache.ReadReq_mshr_misses::total         2134                       # number of ReadReq MSHR misses
system.cpu.icache.demand_mshr_misses::cpu.inst         2134                       # number of demand (read+write) MSHR misses
system.cpu.icache.demand_mshr_misses::total         2134                       # number of demand (read+write) MSHR misses
system.cpu.icache.overall_mshr_misses::cpu.inst         2134                       # number of overall MSHR misses
system.cpu.icache.overall_mshr_misses::total         2134                       # number of overall MSHR misses
system.cpu.icache.ReadReq_mshr_miss_latency::cpu.inst    169930500                       # number of ReadReq MSHR miss cycles
system.cpu.icache.ReadReq_mshr_miss_latency::total    169930500                       # number of ReadReq MSHR miss cycles
system.cpu.icache.demand_mshr_miss_latency::cpu.inst    169930500                       # number of demand (read+write) MSHR miss cycles
system.cpu.icache.demand_mshr_miss_latency::total    169930500                       # number of demand (read+write) MSHR miss cycles
system.cpu.icache.overall_mshr_miss_latency::cpu.inst    169930500                       # number of overall MSHR miss cycles
system.cpu.icache.overall_mshr_miss_latency::total    169930500                       # number of overall MSHR miss cycles
system.cpu.icache.ReadReq_mshr_miss_rate::cpu.inst     0.000003                       # mshr miss rate for ReadReq accesses
system.cpu.icache.ReadReq_mshr_miss_rate::total     0.000003                       # mshr miss rate for ReadReq accesses
system.cpu.icache.demand_mshr_miss_rate::cpu.inst     0.000003                       # mshr miss rate for demand accesses
system.cpu.icache.demand_mshr_miss_rate::total     0.000003                       # mshr miss rate for demand accesses
system.cpu.icache.overall_mshr_miss_rate::cpu.inst     0.000003                       # mshr miss rate for overall accesses
system.cpu.icache.overall_mshr_miss_rate::total     0.000003                       # mshr miss rate for overall accesses
system.cpu.icache.ReadReq_avg_mshr_miss_latency::cpu.inst 79630.037488                       # average ReadReq mshr miss latency
system.cpu.icache.ReadReq_avg_mshr_miss_latency::total 79630.037488                       # average ReadReq mshr miss latency
system.cpu.icache.demand_avg_mshr_miss_latency::cpu.inst 79630.037488                       # average overall mshr miss latency
system.cpu.icache.demand_avg_mshr_miss_latency::total 79630.037488                       # average overall mshr miss latency
system.cpu.icache.overall_avg_mshr_miss_latency::cpu.inst 79630.037488                       # average overall mshr miss latency
system.cpu.icache.overall_avg_mshr_miss_latency::total 79630.037488                       # average overall mshr miss latency
system.cpu.itb_walker_cache.tags.pwrStateResidencyTicks::UNDEFINED 1111349723500                       # Cumulative time (in ticks) in various power states
system.cpu.itb_walker_cache.tags.replacements            0                       # number of replacements
system.cpu.itb_walker_cache.tags.tagsinuse            0                       # Cycle average of tags in use
system.cpu.itb_walker_cache.tags.total_refs            0                       # Total number of references to valid blocks.
system.cpu.itb_walker_cache.tags.sampled_refs            0                       # Sample count of references to valid blocks.
system.cpu.itb_walker_cache.tags.avg_refs          nan                       # Average number of references to valid blocks.
system.cpu.itb_walker_cache.tags.warmup_cycle            0                       # Cycle when the warmup percentage was hit.
system.cpu.itb_walker_cache.tags.tag_accesses            0                       # Number of tag accesses
system.cpu.itb_walker_cache.tags.data_accesses            0                       # Number of data accesses
system.cpu.itb_walker_cache.pwrStateResidencyTicks::UNDEFINED 1111349723500                       # Cumulative time (in ticks) in various power states
system.cpu.itb_walker_cache.blocked_cycles::no_mshrs            0                       # number of cycles access was blocked
system.cpu.itb_walker_cache.blocked_cycles::no_targets            0                       # number of cycles access was blocked
system.cpu.itb_walker_cache.blocked::no_mshrs            0                       # number of cycles access was blocked
system.cpu.itb_walker_cache.blocked::no_targets            0                       # number of cycles access was blocked
system.cpu.itb_walker_cache.avg_blocked_cycles::no_mshrs          nan                       # average number of cycles each access was blocked
system.cpu.itb_walker_cache.avg_blocked_cycles::no_targets          nan                       # average number of cycles each access was blocked
system.l2.tags.pwrStateResidencyTicks::UNDEFINED 1111349723500                       # Cumulative time (in ticks) in various power states
system.l2.tags.replacements                   1207421                       # number of replacements
system.l2.tags.tagsinuse                 32633.798609                       # Cycle average of tags in use
system.l2.tags.total_refs                     4037508                       # Total number of references to valid blocks.
system.l2.tags.sampled_refs                   1240189                       # Sample count of references to valid blocks.
system.l2.tags.avg_refs                      3.255559                       # Average number of references to valid blocks.
system.l2.tags.warmup_cycle                6673101000                       # Cycle when the warmup percentage was hit.
system.l2.tags.occ_blocks::writebacks     1356.237917                       # Average occupied blocks per requestor
system.l2.tags.occ_blocks::cpu.inst          9.087954                       # Average occupied blocks per requestor
system.l2.tags.occ_blocks::cpu.data      31268.472737                       # Average occupied blocks per requestor
system.l2.tags.occ_percent::writebacks       0.041389                       # Average percentage of cache occupancy
system.l2.tags.occ_percent::cpu.inst         0.000277                       # Average percentage of cache occupancy
system.l2.tags.occ_percent::cpu.data         0.954238                       # Average percentage of cache occupancy
system.l2.tags.occ_percent::total            0.995904                       # Average percentage of cache occupancy
system.l2.tags.occ_task_id_blocks::1024         32768                       # Occupied blocks per task id
system.l2.tags.age_task_id_blocks_1024::0            1                       # Occupied blocks per task id
system.l2.tags.age_task_id_blocks_1024::1           26                       # Occupied blocks per task id
system.l2.tags.age_task_id_blocks_1024::2           32                       # Occupied blocks per task id
system.l2.tags.age_task_id_blocks_1024::3          508                       # Occupied blocks per task id
system.l2.tags.age_task_id_blocks_1024::4        32201                       # Occupied blocks per task id
system.l2.tags.occ_task_id_percent::1024            1                       # Percentage of cache occupancy per task id
system.l2.tags.tag_accesses                   6638036                       # Number of tag accesses
system.l2.tags.data_accesses                  6638036                       # Number of data accesses
system.l2.pwrStateResidencyTicks::UNDEFINED 1111349723500                       # Cumulative time (in ticks) in various power states
system.l2.WritebackDirty_hits::writebacks      1290321                       # number of WritebackDirty hits
system.l2.WritebackDirty_hits::total          1290321                       # number of WritebackDirty hits
system.l2.WritebackClean_hits::writebacks         1254                       # number of WritebackClean hits
system.l2.WritebackClean_hits::total             1254                       # number of WritebackClean hits
system.l2.ReadExReq_hits::cpu.data             286841                       # number of ReadExReq hits
system.l2.ReadExReq_hits::total                286841                       # number of ReadExReq hits
system.l2.ReadCleanReq_hits::cpu.inst             282                       # number of ReadCleanReq hits
system.l2.ReadCleanReq_hits::total                282                       # number of ReadCleanReq hits
system.l2.ReadSharedReq_hits::cpu.data        1276247                       # number of ReadSharedReq hits
system.l2.ReadSharedReq_hits::total           1276247                       # number of ReadSharedReq hits
system.l2.demand_hits::cpu.inst                   282                       # number of demand (read+write) hits
system.l2.demand_hits::cpu.data               1563088                       # number of demand (read+write) hits
system.l2.demand_hits::total                  1563370                       # number of demand (read+write) hits
system.l2.overall_hits::cpu.inst                  282                       # number of overall hits
system.l2.overall_hits::cpu.data              1563088                       # number of overall hits
system.l2.overall_hits::total                 1563370                       # number of overall hits
system.l2.ReadExReq_misses::cpu.data           459413                       # number of ReadExReq misses
system.l2.ReadExReq_misses::total              459413                       # number of ReadExReq misses
system.l2.ReadCleanReq_misses::cpu.inst          1852                       # number of ReadCleanReq misses
system.l2.ReadCleanReq_misses::total             1852                       # number of ReadCleanReq misses
system.l2.ReadSharedReq_misses::cpu.data       676777                       # number of ReadSharedReq misses
system.l2.ReadSharedReq_misses::total          676777                       # number of ReadSharedReq misses
system.l2.demand_misses::cpu.inst                1852                       # number of demand (read+write) misses
system.l2.demand_misses::cpu.data             1136190                       # number of demand (read+write) misses
system.l2.demand_misses::total                1138042                       # number of demand (read+write) misses
system.l2.overall_misses::cpu.inst               1852                       # number of overall misses
system.l2.overall_misses::cpu.data            1136190                       # number of overall misses
system.l2.overall_misses::total               1138042                       # number of overall misses
system.l2.ReadExReq_miss_latency::cpu.data  42363110000                       # number of ReadExReq miss cycles
system.l2.ReadExReq_miss_latency::total   42363110000                       # number of ReadExReq miss cycles
system.l2.ReadCleanReq_miss_latency::cpu.inst    163767500                       # number of ReadCleanReq miss cycles
system.l2.ReadCleanReq_miss_latency::total    163767500                       # number of ReadCleanReq miss cycles
system.l2.ReadSharedReq_miss_latency::cpu.data  66332695500                       # number of ReadSharedReq miss cycles
system.l2.ReadSharedReq_miss_latency::total  66332695500                       # number of ReadSharedReq miss cycles
system.l2.demand_miss_latency::cpu.inst     163767500                       # number of demand (read+write) miss cycles
system.l2.demand_miss_latency::cpu.data  108695805500                       # number of demand (read+write) miss cycles
system.l2.demand_miss_latency::total     108859573000                       # number of demand (read+write) miss cycles
system.l2.overall_miss_latency::cpu.inst    163767500                       # number of overall miss cycles
system.l2.overall_miss_latency::cpu.data 108695805500                       # number of overall miss cycles
system.l2.overall_miss_latency::total    108859573000                       # number of overall miss cycles
system.l2.WritebackDirty_accesses::writebacks      1290321                       # number of WritebackDirty accesses(hits+misses)
system.l2.WritebackDirty_accesses::total      1290321                       # number of WritebackDirty accesses(hits+misses)
system.l2.WritebackClean_accesses::writebacks         1254                       # number of WritebackClean accesses(hits+misses)
system.l2.WritebackClean_accesses::total         1254                       # number of WritebackClean accesses(hits+misses)
system.l2.ReadExReq_accesses::cpu.data         746254                       # number of ReadExReq accesses(hits+misses)
system.l2.ReadExReq_accesses::total            746254                       # number of ReadExReq accesses(hits+misses)
system.l2.ReadCleanReq_accesses::cpu.inst         2134                       # number of ReadCleanReq accesses(hits+misses)
system.l2.ReadCleanReq_accesses::total           2134                       # number of ReadCleanReq accesses(hits+misses)
system.l2.ReadSharedReq_accesses::cpu.data      1953024                       # number of ReadSharedReq accesses(hits+misses)
system.l2.ReadSharedReq_accesses::total       1953024                       # number of ReadSharedReq accesses(hits+misses)
system.l2.demand_accesses::cpu.inst              2134                       # number of demand (read+write) accesses
system.l2.demand_accesses::cpu.data           2699278                       # number of demand (read+write) accesses
system.l2.demand_accesses::total              2701412                       # number of demand (read+write) accesses
system.l2.overall_accesses::cpu.inst             2134                       # number of overall (read+write) accesses
system.l2.overall_accesses::cpu.data          2699278                       # number of overall (read+write) accesses
system.l2.overall_accesses::total             2701412                       # number of overall (read+write) accesses
system.l2.ReadExReq_miss_rate::cpu.data      0.615626                       # miss rate for ReadExReq accesses
system.l2.ReadExReq_miss_rate::total         0.615626                       # miss rate for ReadExReq accesses
system.l2.ReadCleanReq_miss_rate::cpu.inst     0.867854                       # miss rate for ReadCleanReq accesses
system.l2.ReadCleanReq_miss_rate::total      0.867854                       # miss rate for ReadCleanReq accesses
system.l2.ReadSharedReq_miss_rate::cpu.data     0.346528                       # miss rate for ReadSharedReq accesses
system.l2.ReadSharedReq_miss_rate::total     0.346528                       # miss rate for ReadSharedReq accesses
system.l2.demand_miss_rate::cpu.inst         0.867854                       # miss rate for demand accesses
system.l2.demand_miss_rate::cpu.data         0.420924                       # miss rate for demand accesses
system.l2.demand_miss_rate::total            0.421277                       # miss rate for demand accesses
system.l2.overall_miss_rate::cpu.inst        0.867854                       # miss rate for overall accesses
system.l2.overall_miss_rate::cpu.data        0.420924                       # miss rate for overall accesses
system.l2.overall_miss_rate::total           0.421277                       # miss rate for overall accesses
system.l2.ReadExReq_avg_miss_latency::cpu.data 92211.387140                       # average ReadExReq miss latency
system.l2.ReadExReq_avg_miss_latency::total 92211.387140                       # average ReadExReq miss latency
system.l2.ReadCleanReq_avg_miss_latency::cpu.inst 88427.375810                       # average ReadCleanReq miss latency
system.l2.ReadCleanReq_avg_miss_latency::total 88427.375810                       # average ReadCleanReq miss latency
system.l2.ReadSharedReq_avg_miss_latency::cpu.data 98012.632669                       # average ReadSharedReq miss latency
system.l2.ReadSharedReq_avg_miss_latency::total 98012.632669                       # average ReadSharedReq miss latency
system.l2.demand_avg_miss_latency::cpu.inst 88427.375810                       # average overall miss latency
system.l2.demand_avg_miss_latency::cpu.data 95666.926746                       # average overall miss latency
system.l2.demand_avg_miss_latency::total 95655.145416                       # average overall miss latency
system.l2.overall_avg_miss_latency::cpu.inst 88427.375810                       # average overall miss latency
system.l2.overall_avg_miss_latency::cpu.data 95666.926746                       # average overall miss latency
system.l2.overall_avg_miss_latency::total 95655.145416                       # average overall miss latency
system.l2.blocked_cycles::no_mshrs                  0                       # number of cycles access was blocked
system.l2.blocked_cycles::no_targets                0                       # number of cycles access was blocked
system.l2.blocked::no_mshrs                         0                       # number of cycles access was blocked
system.l2.blocked::no_targets                       0                       # number of cycles access was blocked
system.l2.avg_blocked_cycles::no_mshrs            nan                       # average number of cycles each access was blocked
system.l2.avg_blocked_cycles::no_targets          nan                       # average number of cycles each access was blocked
system.l2.writebacks::writebacks               558816                       # number of writebacks
system.l2.writebacks::total                    558816                       # number of writebacks
system.l2.CleanEvict_mshr_misses::writebacks       120150                       # number of CleanEvict MSHR misses
system.l2.CleanEvict_mshr_misses::total        120150                       # number of CleanEvict MSHR misses
system.l2.ReadExReq_mshr_misses::cpu.data       459413                       # number of ReadExReq MSHR misses
system.l2.ReadExReq_mshr_misses::total         459413                       # number of ReadExReq MSHR misses
system.l2.ReadCleanReq_mshr_misses::cpu.inst         1852                       # number of ReadCleanReq MSHR misses
system.l2.ReadCleanReq_mshr_misses::total         1852                       # number of ReadCleanReq MSHR misses
system.l2.ReadSharedReq_mshr_misses::cpu.data       676777                       # number of ReadSharedReq MSHR misses
system.l2.ReadSharedReq_mshr_misses::total       676777                       # number of ReadSharedReq MSHR misses
system.l2.demand_mshr_misses::cpu.inst           1852                       # number of demand (read+write) MSHR misses
system.l2.demand_mshr_misses::cpu.data        1136190                       # number of demand (read+write) MSHR misses
system.l2.demand_mshr_misses::total           1138042                       # number of demand (read+write) MSHR misses
system.l2.overall_mshr_misses::cpu.inst          1852                       # number of overall MSHR misses
system.l2.overall_mshr_misses::cpu.data       1136190                       # number of overall MSHR misses
system.l2.overall_mshr_misses::total          1138042                       # number of overall MSHR misses
system.l2.ReadExReq_mshr_miss_latency::cpu.data  37768980000                       # number of ReadExReq MSHR miss cycles
system.l2.ReadExReq_mshr_miss_latency::total  37768980000                       # number of ReadExReq MSHR miss cycles
system.l2.ReadCleanReq_mshr_miss_latency::cpu.inst    145247500                       # number of ReadCleanReq MSHR miss cycles
system.l2.ReadCleanReq_mshr_miss_latency::total    145247500                       # number of ReadCleanReq MSHR miss cycles
system.l2.ReadSharedReq_mshr_miss_latency::cpu.data  59564925500                       # number of ReadSharedReq MSHR miss cycles
system.l2.ReadSharedReq_mshr_miss_latency::total  59564925500                       # number of ReadSharedReq MSHR miss cycles
system.l2.demand_mshr_miss_latency::cpu.inst    145247500                       # number of demand (read+write) MSHR miss cycles
system.l2.demand_mshr_miss_latency::cpu.data  97333905500                       # number of demand (read+write) MSHR miss cycles
system.l2.demand_mshr_miss_latency::total  97479153000                       # number of demand (read+write) MSHR miss cycles
system.l2.overall_mshr_miss_latency::cpu.inst    145247500                       # number of overall MSHR miss cycles
system.l2.overall_mshr_miss_latency::cpu.data  97333905500                       # number of overall MSHR miss cycles
system.l2.overall_mshr_miss_latency::total  97479153000                       # number of overall MSHR miss cycles
system.l2.CleanEvict_mshr_miss_rate::writebacks          inf                       # mshr miss rate for CleanEvict accesses
system.l2.CleanEvict_mshr_miss_rate::total          inf                       # mshr miss rate for CleanEvict accesses
system.l2.ReadExReq_mshr_miss_rate::cpu.data     0.615626                       # mshr miss rate for ReadExReq accesses
system.l2.ReadExReq_mshr_miss_rate::total     0.615626                       # mshr miss rate for ReadExReq accesses
system.l2.ReadCleanReq_mshr_miss_rate::cpu.inst     0.867854                       # mshr miss rate for ReadCleanReq accesses
system.l2.ReadCleanReq_mshr_miss_rate::total     0.867854                       # mshr miss rate for ReadCleanReq accesses
system.l2.ReadSharedReq_mshr_miss_rate::cpu.data     0.346528                       # mshr miss rate for ReadSharedReq accesses
system.l2.ReadSharedReq_mshr_miss_rate::total     0.346528                       # mshr miss rate for ReadSharedReq accesses
system.l2.demand_mshr_miss_rate::cpu.inst     0.867854                       # mshr miss rate for demand accesses
system.l2.demand_mshr_miss_rate::cpu.data     0.420924                       # mshr miss rate for demand accesses
system.l2.demand_mshr_miss_rate::total       0.421277                       # mshr miss rate for demand accesses
system.l2.overall_mshr_miss_rate::cpu.inst     0.867854                       # mshr miss rate for overall accesses
system.l2.overall_mshr_miss_rate::cpu.data     0.420924                       # mshr miss rate for overall accesses
system.l2.overall_mshr_miss_rate::total      0.421277                       # mshr miss rate for overall accesses
system.l2.ReadExReq_avg_mshr_miss_latency::cpu.data 82211.387140                       # average ReadExReq mshr miss latency
system.l2.ReadExReq_avg_mshr_miss_latency::total 82211.387140                       # average ReadExReq mshr miss latency
system.l2.ReadCleanReq_avg_mshr_miss_latency::cpu.inst 78427.375810                       # average ReadCleanReq mshr miss latency
system.l2.ReadCleanReq_avg_mshr_miss_latency::total 78427.375810                       # average ReadCleanReq mshr miss latency
system.l2.ReadSharedReq_avg_mshr_miss_latency::cpu.data 88012.632669                       # average ReadSharedReq mshr miss latency
system.l2.ReadSharedReq_avg_mshr_miss_latency::total 88012.632669                       # average ReadSharedReq mshr miss latency
system.l2.demand_avg_mshr_miss_latency::cpu.inst 78427.375810                       # average overall mshr miss latency
system.l2.demand_avg_mshr_miss_latency::cpu.data 85666.926746                       # average overall mshr miss latency
system.l2.demand_avg_mshr_miss_latency::total 85655.145416                       # average overall mshr miss latency
system.l2.overall_avg_mshr_miss_latency::cpu.inst 78427.375810                       # average overall mshr miss latency
system.l2.overall_avg_mshr_miss_latency::cpu.data 85666.926746                       # average overall mshr miss latency
system.l2.overall_avg_mshr_miss_latency::total 85655.145416                       # average overall mshr miss latency
system.membus.snoop_filter.tot_requests       2242518                       # Total number of requests made to the snoop filter.
system.membus.snoop_filter.hit_single_requests      1104476                       # Number of requests hitting in the snoop filter with a single holder of the requested data.
system.membus.snoop_filter.hit_multi_requests            0                       # Number of requests hitting in the snoop filter with multiple (>1) holders of the requested data.
system.membus.snoop_filter.tot_snoops               0                       # Total number of snoops made to the snoop filter.
system.membus.snoop_filter.hit_single_snoops            0                       # Number of snoops hitting in the snoop filter with a single holder of the requested data.
system.membus.snoop_filter.hit_multi_snoops            0                       # Number of snoops hitting in the snoop filter with multiple (>1) holders of the requested data.
system.membus.pwrStateResidencyTicks::UNDEFINED 1111349723500                       # Cumulative time (in ticks) in various power states
system.membus.trans_dist::ReadResp             678629                       # Transaction distribution
system.membus.trans_dist::WritebackDirty       558816                       # Transaction distribution
system.membus.trans_dist::CleanEvict           545660                       # Transaction distribution
system.membus.trans_dist::ReadExReq            459413                       # Transaction distribution
system.membus.trans_dist::ReadExResp           459413                       # Transaction distribution
system.membus.trans_dist::ReadSharedReq        678629                       # Transaction distribution
system.membus.pkt_count_system.l2.mem_side::system.mem_ctrls.port      3380560                       # Packet count per connected master and slave (bytes)
system.membus.pkt_count_system.l2.mem_side::total      3380560                       # Packet count per connected master and slave (bytes)
system.membus.pkt_count::total                3380560                       # Packet count per connected master and slave (bytes)
system.membus.pkt_size_system.l2.mem_side::system.mem_ctrls.port     54299456                       # Cumulative packet size per connected master and slave (bytes)
system.membus.pkt_size_system.l2.mem_side::total     54299456                       # Cumulative packet size per connected master and slave (bytes)
system.membus.pkt_size::total                54299456                       # Cumulative packet size per connected master and slave (bytes)
system.membus.snoops                                0                       # Total snoops (count)
system.membus.snoopTraffic                          0                       # Total snoop traffic (bytes)
system.membus.snoop_fanout::samples           1138042                       # Request fanout histogram
system.membus.snoop_fanout::mean                    0                       # Request fanout histogram
system.membus.snoop_fanout::stdev                   0                       # Request fanout histogram
system.membus.snoop_fanout::underflows              0      0.00%      0.00% # Request fanout histogram
system.membus.snoop_fanout::0                 1138042    100.00%    100.00% # Request fanout histogram
system.membus.snoop_fanout::1                       0      0.00%    100.00% # Request fanout histogram
system.membus.snoop_fanout::overflows               0      0.00%    100.00% # Request fanout histogram
system.membus.snoop_fanout::min_value               0                       # Request fanout histogram
system.membus.snoop_fanout::max_value               0                       # Request fanout histogram
system.membus.snoop_fanout::total             1138042                       # Request fanout histogram
system.membus.reqLayer2.occupancy          3360157000                       # Layer occupancy (ticks)
system.membus.reqLayer2.utilization               0.3                       # Layer utilization (%)
system.membus.respLayer1.occupancy         3867607500                       # Layer occupancy (ticks)
system.membus.respLayer1.utilization              0.3                       # Layer utilization (%)
system.tol2bus.snoop_filter.tot_requests      5397848                       # Total number of requests made to the snoop filter.
system.tol2bus.snoop_filter.hit_single_requests      2696436                       # Number of requests hitting in the snoop filter with a single holder of the requested data.
system.tol2bus.snoop_filter.hit_multi_requests            1                       # Number of requests hitting in the snoop filter with multiple (>1) holders of the requested data.
system.tol2bus.snoop_filter.tot_snoops         223095                       # Total number of snoops made to the snoop filter.
system.tol2bus.snoop_filter.hit_single_snoops       223095                       # Number of snoops hitting in the snoop filter with a single holder of the requested data.
system.tol2bus.snoop_filter.hit_multi_snoops            0                       # Number of snoops hitting in the snoop filter with multiple (>1) holders of the requested data.
system.tol2bus.pwrStateResidencyTicks::UNDEFINED 1111349723500                       # Cumulative time (in ticks) in various power states
system.tol2bus.trans_dist::ReadResp           1955158                       # Transaction distribution
system.tol2bus.trans_dist::WritebackDirty      1849137                       # Transaction distribution
system.tol2bus.trans_dist::WritebackClean         1254                       # Transaction distribution
system.tol2bus.trans_dist::CleanEvict         2053466                       # Transaction distribution
system.tol2bus.trans_dist::ReadExReq           746254                       # Transaction distribution
system.tol2bus.trans_dist::ReadExResp          746254                       # Transaction distribution
system.tol2bus.trans_dist::ReadCleanReq          2134                       # Transaction distribution
system.tol2bus.trans_dist::ReadSharedReq      1953024                       # Transaction distribution
system.tol2bus.pkt_count_system.cpu.icache.mem_side::system.l2.cpu_side         5522                       # Packet count per connected master and slave (bytes)
system.tol2bus.pkt_count_system.cpu.dcache.mem_side::system.l2.cpu_side      8093738                       # Packet count per connected master and slave (bytes)
system.tol2bus.pkt_count::total               8099260                       # Packet count per connected master and slave (bytes)
system.tol2bus.pkt_size_system.cpu.icache.mem_side::system.l2.cpu_side       108416                       # Cumulative packet size per connected master and slave (bytes)
system.tol2bus.pkt_size_system.cpu.dcache.mem_side::system.l2.cpu_side    127667168                       # Cumulative packet size per connected master and slave (bytes)
system.tol2bus.pkt_size::total              127775584                       # Cumulative packet size per connected master and slave (bytes)
system.tol2bus.snoops                         1207421                       # Total snoops (count)
system.tol2bus.snoopTraffic                  17882112                       # Total snoop traffic (bytes)
system.tol2bus.snoop_fanout::samples          3908833                       # Request fanout histogram
system.tol2bus.snoop_fanout::mean            0.057075                       # Request fanout histogram
system.tol2bus.snoop_fanout::stdev           0.231986                       # Request fanout histogram
system.tol2bus.snoop_fanout::underflows             0      0.00%      0.00% # Request fanout histogram
system.tol2bus.snoop_fanout::0                3685737     94.29%     94.29% # Request fanout histogram
system.tol2bus.snoop_fanout::1                 223096      5.71%    100.00% # Request fanout histogram
system.tol2bus.snoop_fanout::2                      0      0.00%    100.00% # Request fanout histogram
system.tol2bus.snoop_fanout::3                      0      0.00%    100.00% # Request fanout histogram
system.tol2bus.snoop_fanout::4                      0      0.00%    100.00% # Request fanout histogram
system.tol2bus.snoop_fanout::overflows              0      0.00%    100.00% # Request fanout histogram
system.tol2bus.snoop_fanout::min_value              0                       # Request fanout histogram
system.tol2bus.snoop_fanout::max_value              1                       # Request fanout histogram
system.tol2bus.snoop_fanout::total            3908833                       # Request fanout histogram
system.tol2bus.reqLayer0.occupancy         3344711500                       # Layer occupancy (ticks)
system.tol2bus.reqLayer0.utilization              0.3                       # Layer utilization (%)
system.tol2bus.respLayer0.occupancy           2134000                       # Layer occupancy (ticks)
system.tol2bus.respLayer0.utilization             0.0                       # Layer utilization (%)
system.tol2bus.respLayer1.occupancy        2699278000                       # Layer occupancy (ticks)
system.tol2bus.respLayer1.utilization             0.2                       # Layer utilization (%)

---------- End Simulation Statistics   ----------
