
---------- Begin Simulation Statistics ----------
sim_seconds                                  1.071551                       # Number of seconds simulated
sim_ticks                                1071550998500                       # Number of ticks simulated
final_tick                               1071550998500                       # Number of ticks from beginning of simulation (restored from checkpoints and never reset)
sim_freq                                 1000000000000                       # Frequency of simulated ticks
host_inst_rate                                 541638                       # Simulator instruction rate (inst/s)
host_op_rate                                   791279                       # Simulator op (including micro ops) rate (op/s)
host_tick_rate                             1160785540                       # Simulator tick rate (ticks/s)
host_mem_usage                                 655612                       # Number of bytes of host memory used
host_seconds                                   923.13                       # Real time elapsed on the host
sim_insts                                   500000001                       # Number of instructions simulated
sim_ops                                     730450447                       # Number of ops (including micro ops) simulated
system.voltage_domain.voltage                       1                       # Voltage in Volts
system.clk_domain.clock                          1000                       # Clock period in ticks
system.mem_ctrls.pwrStateResidencyTicks::UNDEFINED 1071550998500                       # Cumulative time (in ticks) in various power states
system.mem_ctrls.bytes_read::cpu.inst           64256                       # Number of bytes read from this memory
system.mem_ctrls.bytes_read::cpu.data        41405824                       # Number of bytes read from this memory
system.mem_ctrls.bytes_read::total           41470080                       # Number of bytes read from this memory
system.mem_ctrls.bytes_inst_read::cpu.inst        64256                       # Number of instructions bytes read from this memory
system.mem_ctrls.bytes_inst_read::total         64256                       # Number of instructions bytes read from this memory
system.mem_ctrls.bytes_written::writebacks     25112768                       # Number of bytes written to this memory
system.mem_ctrls.bytes_written::total        25112768                       # Number of bytes written to this memory
system.mem_ctrls.num_reads::cpu.inst             1004                       # Number of read requests responded to by this memory
system.mem_ctrls.num_reads::cpu.data           646966                       # Number of read requests responded to by this memory
system.mem_ctrls.num_reads::total              647970                       # Number of read requests responded to by this memory
system.mem_ctrls.num_writes::writebacks        392387                       # Number of write requests responded to by this memory
system.mem_ctrls.num_writes::total             392387                       # Number of write requests responded to by this memory
system.mem_ctrls.bw_read::cpu.inst              59965                       # Total read bandwidth from this memory (bytes/s)
system.mem_ctrls.bw_read::cpu.data           38641020                       # Total read bandwidth from this memory (bytes/s)
system.mem_ctrls.bw_read::total              38700986                       # Total read bandwidth from this memory (bytes/s)
system.mem_ctrls.bw_inst_read::cpu.inst         59965                       # Instruction read bandwidth from this memory (bytes/s)
system.mem_ctrls.bw_inst_read::total            59965                       # Instruction read bandwidth from this memory (bytes/s)
system.mem_ctrls.bw_write::writebacks        23435906                       # Write bandwidth from this memory (bytes/s)
system.mem_ctrls.bw_write::total             23435906                       # Write bandwidth from this memory (bytes/s)
system.mem_ctrls.bw_total::writebacks        23435906                       # Total bandwidth to/from this memory (bytes/s)
system.mem_ctrls.bw_total::cpu.inst             59965                       # Total bandwidth to/from this memory (bytes/s)
system.mem_ctrls.bw_total::cpu.data          38641020                       # Total bandwidth to/from this memory (bytes/s)
system.mem_ctrls.bw_total::total             62136891                       # Total bandwidth to/from this memory (bytes/s)
system.mem_ctrls.readReqs                      647970                       # Number of read requests accepted
system.mem_ctrls.writeReqs                     392387                       # Number of write requests accepted
system.mem_ctrls.readBursts                    647970                       # Number of DRAM read bursts, including those serviced by the write queue
system.mem_ctrls.writeBursts                   392387                       # Number of DRAM write bursts, including those merged in the write queue
system.mem_ctrls.bytesReadDRAM               41411008                       # Total number of bytes read from DRAM
system.mem_ctrls.bytesReadWrQ                   59072                       # Total number of bytes read from write queue
system.mem_ctrls.bytesWritten                25111104                       # Total number of bytes written to DRAM
system.mem_ctrls.bytesReadSys                41470080                       # Total read bytes from the system interface side
system.mem_ctrls.bytesWrittenSys             25112768                       # Total written bytes from the system interface side
system.mem_ctrls.servicedByWrQ                    923                       # Number of DRAM read bursts serviced by the write queue
system.mem_ctrls.mergedWrBursts                     1                       # Number of DRAM write bursts merged with an existing one
system.mem_ctrls.neitherReadNorWriteReqs            0                       # Number of requests that are neither read nor write
system.mem_ctrls.perBankRdBursts::0             43072                       # Per bank write bursts
system.mem_ctrls.perBankRdBursts::1             41282                       # Per bank write bursts
system.mem_ctrls.perBankRdBursts::2             40293                       # Per bank write bursts
system.mem_ctrls.perBankRdBursts::3             39166                       # Per bank write bursts
system.mem_ctrls.perBankRdBursts::4             38287                       # Per bank write bursts
system.mem_ctrls.perBankRdBursts::5             38919                       # Per bank write bursts
system.mem_ctrls.perBankRdBursts::6             40075                       # Per bank write bursts
system.mem_ctrls.perBankRdBursts::7             39591                       # Per bank write bursts
system.mem_ctrls.perBankRdBursts::8             37540                       # Per bank write bursts
system.mem_ctrls.perBankRdBursts::9             37016                       # Per bank write bursts
system.mem_ctrls.perBankRdBursts::10            40372                       # Per bank write bursts
system.mem_ctrls.perBankRdBursts::11            41454                       # Per bank write bursts
system.mem_ctrls.perBankRdBursts::12            42075                       # Per bank write bursts
system.mem_ctrls.perBankRdBursts::13            42205                       # Per bank write bursts
system.mem_ctrls.perBankRdBursts::14            42701                       # Per bank write bursts
system.mem_ctrls.perBankRdBursts::15            42999                       # Per bank write bursts
system.mem_ctrls.perBankWrBursts::0             26144                       # Per bank write bursts
system.mem_ctrls.perBankWrBursts::1             25020                       # Per bank write bursts
system.mem_ctrls.perBankWrBursts::2             24602                       # Per bank write bursts
system.mem_ctrls.perBankWrBursts::3             23613                       # Per bank write bursts
system.mem_ctrls.perBankWrBursts::4             22887                       # Per bank write bursts
system.mem_ctrls.perBankWrBursts::5             22938                       # Per bank write bursts
system.mem_ctrls.perBankWrBursts::6             23605                       # Per bank write bursts
system.mem_ctrls.perBankWrBursts::7             23855                       # Per bank write bursts
system.mem_ctrls.perBankWrBursts::8             23224                       # Per bank write bursts
system.mem_ctrls.perBankWrBursts::9             22938                       # Per bank write bursts
system.mem_ctrls.perBankWrBursts::10            24642                       # Per bank write bursts
system.mem_ctrls.perBankWrBursts::11            25214                       # Per bank write bursts
system.mem_ctrls.perBankWrBursts::12            25315                       # Per bank write bursts
system.mem_ctrls.perBankWrBursts::13            25905                       # Per bank write bursts
system.mem_ctrls.perBankWrBursts::14            26279                       # Per bank write bursts
system.mem_ctrls.perBankWrBursts::15            26180                       # Per bank write bursts
system.mem_ctrls.numRdRetry                         0                       # Number of times read queue was full causing retry
system.mem_ctrls.numWrRetry                         0                       # Number of times write queue was full causing retry
system.mem_ctrls.totGap                  1071517647500                       # Total gap between requests
system.mem_ctrls.readPktSize::0                     0                       # Read request sizes (log2)
system.mem_ctrls.readPktSize::1                     0                       # Read request sizes (log2)
system.mem_ctrls.readPktSize::2                     0                       # Read request sizes (log2)
system.mem_ctrls.readPktSize::3                     0                       # Read request sizes (log2)
system.mem_ctrls.readPktSize::4                     0                       # Read request sizes (log2)
system.mem_ctrls.readPktSize::5                     0                       # Read request sizes (log2)
system.mem_ctrls.readPktSize::6                647970                       # Read request sizes (log2)
system.mem_ctrls.writePktSize::0                    0                       # Write request sizes (log2)
system.mem_ctrls.writePktSize::1                    0                       # Write request sizes (log2)
system.mem_ctrls.writePktSize::2                    0                       # Write request sizes (log2)
system.mem_ctrls.writePktSize::3                    0                       # Write request sizes (log2)
system.mem_ctrls.writePktSize::4                    0                       # Write request sizes (log2)
system.mem_ctrls.writePktSize::5                    0                       # Write request sizes (log2)
system.mem_ctrls.writePktSize::6               392387                       # Write request sizes (log2)
system.mem_ctrls.rdQLenPdf::0                  638494                       # What read queue length does an incoming req see
system.mem_ctrls.rdQLenPdf::1                    8060                       # What read queue length does an incoming req see
system.mem_ctrls.rdQLenPdf::2                     349                       # What read queue length does an incoming req see
system.mem_ctrls.rdQLenPdf::3                     144                       # What read queue length does an incoming req see
system.mem_ctrls.rdQLenPdf::4                       0                       # What read queue length does an incoming req see
system.mem_ctrls.rdQLenPdf::5                       0                       # What read queue length does an incoming req see
system.mem_ctrls.rdQLenPdf::6                       0                       # What read queue length does an incoming req see
system.mem_ctrls.rdQLenPdf::7                       0                       # What read queue length does an incoming req see
system.mem_ctrls.rdQLenPdf::8                       0                       # What read queue length does an incoming req see
system.mem_ctrls.rdQLenPdf::9                       0                       # What read queue length does an incoming req see
system.mem_ctrls.rdQLenPdf::10                      0                       # What read queue length does an incoming req see
system.mem_ctrls.rdQLenPdf::11                      0                       # What read queue length does an incoming req see
system.mem_ctrls.rdQLenPdf::12                      0                       # What read queue length does an incoming req see
system.mem_ctrls.rdQLenPdf::13                      0                       # What read queue length does an incoming req see
system.mem_ctrls.rdQLenPdf::14                      0                       # What read queue length does an incoming req see
system.mem_ctrls.rdQLenPdf::15                      0                       # What read queue length does an incoming req see
system.mem_ctrls.rdQLenPdf::16                      0                       # What read queue length does an incoming req see
system.mem_ctrls.rdQLenPdf::17                      0                       # What read queue length does an incoming req see
system.mem_ctrls.rdQLenPdf::18                      0                       # What read queue length does an incoming req see
system.mem_ctrls.rdQLenPdf::19                      0                       # What read queue length does an incoming req see
system.mem_ctrls.rdQLenPdf::20                      0                       # What read queue length does an incoming req see
system.mem_ctrls.rdQLenPdf::21                      0                       # What read queue length does an incoming req see
system.mem_ctrls.rdQLenPdf::22                      0                       # What read queue length does an incoming req see
system.mem_ctrls.rdQLenPdf::23                      0                       # What read queue length does an incoming req see
system.mem_ctrls.rdQLenPdf::24                      0                       # What read queue length does an incoming req see
system.mem_ctrls.rdQLenPdf::25                      0                       # What read queue length does an incoming req see
system.mem_ctrls.rdQLenPdf::26                      0                       # What read queue length does an incoming req see
system.mem_ctrls.rdQLenPdf::27                      0                       # What read queue length does an incoming req see
system.mem_ctrls.rdQLenPdf::28                      0                       # What read queue length does an incoming req see
system.mem_ctrls.rdQLenPdf::29                      0                       # What read queue length does an incoming req see
system.mem_ctrls.rdQLenPdf::30                      0                       # What read queue length does an incoming req see
system.mem_ctrls.rdQLenPdf::31                      0                       # What read queue length does an incoming req see
system.mem_ctrls.wrQLenPdf::0                       1                       # What write queue length does an incoming req see
system.mem_ctrls.wrQLenPdf::1                       1                       # What write queue length does an incoming req see
system.mem_ctrls.wrQLenPdf::2                       1                       # What write queue length does an incoming req see
system.mem_ctrls.wrQLenPdf::3                       1                       # What write queue length does an incoming req see
system.mem_ctrls.wrQLenPdf::4                       1                       # What write queue length does an incoming req see
system.mem_ctrls.wrQLenPdf::5                       1                       # What write queue length does an incoming req see
system.mem_ctrls.wrQLenPdf::6                       1                       # What write queue length does an incoming req see
system.mem_ctrls.wrQLenPdf::7                       1                       # What write queue length does an incoming req see
system.mem_ctrls.wrQLenPdf::8                       1                       # What write queue length does an incoming req see
system.mem_ctrls.wrQLenPdf::9                       1                       # What write queue length does an incoming req see
system.mem_ctrls.wrQLenPdf::10                      1                       # What write queue length does an incoming req see
system.mem_ctrls.wrQLenPdf::11                      1                       # What write queue length does an incoming req see
system.mem_ctrls.wrQLenPdf::12                      1                       # What write queue length does an incoming req see
system.mem_ctrls.wrQLenPdf::13                      1                       # What write queue length does an incoming req see
system.mem_ctrls.wrQLenPdf::14                      1                       # What write queue length does an incoming req see
system.mem_ctrls.wrQLenPdf::15                  13754                       # What write queue length does an incoming req see
system.mem_ctrls.wrQLenPdf::16                  14669                       # What write queue length does an incoming req see
system.mem_ctrls.wrQLenPdf::17                  22772                       # What write queue length does an incoming req see
system.mem_ctrls.wrQLenPdf::18                  22744                       # What write queue length does an incoming req see
system.mem_ctrls.wrQLenPdf::19                  22745                       # What write queue length does an incoming req see
system.mem_ctrls.wrQLenPdf::20                  22745                       # What write queue length does an incoming req see
system.mem_ctrls.wrQLenPdf::21                  22744                       # What write queue length does an incoming req see
system.mem_ctrls.wrQLenPdf::22                  22744                       # What write queue length does an incoming req see
system.mem_ctrls.wrQLenPdf::23                  22746                       # What write queue length does an incoming req see
system.mem_ctrls.wrQLenPdf::24                  22744                       # What write queue length does an incoming req see
system.mem_ctrls.wrQLenPdf::25                  22743                       # What write queue length does an incoming req see
system.mem_ctrls.wrQLenPdf::26                  22743                       # What write queue length does an incoming req see
system.mem_ctrls.wrQLenPdf::27                  22745                       # What write queue length does an incoming req see
system.mem_ctrls.wrQLenPdf::28                  22745                       # What write queue length does an incoming req see
system.mem_ctrls.wrQLenPdf::29                  22755                       # What write queue length does an incoming req see
system.mem_ctrls.wrQLenPdf::30                  22744                       # What write queue length does an incoming req see
system.mem_ctrls.wrQLenPdf::31                  22746                       # What write queue length does an incoming req see
system.mem_ctrls.wrQLenPdf::32                  22743                       # What write queue length does an incoming req see
system.mem_ctrls.wrQLenPdf::33                      0                       # What write queue length does an incoming req see
system.mem_ctrls.wrQLenPdf::34                      0                       # What write queue length does an incoming req see
system.mem_ctrls.wrQLenPdf::35                      0                       # What write queue length does an incoming req see
system.mem_ctrls.wrQLenPdf::36                      0                       # What write queue length does an incoming req see
system.mem_ctrls.wrQLenPdf::37                      0                       # What write queue length does an incoming req see
system.mem_ctrls.wrQLenPdf::38                      0                       # What write queue length does an incoming req see
system.mem_ctrls.wrQLenPdf::39                      0                       # What write queue length does an incoming req see
system.mem_ctrls.wrQLenPdf::40                      0                       # What write queue length does an incoming req see
system.mem_ctrls.wrQLenPdf::41                      0                       # What write queue length does an incoming req see
system.mem_ctrls.wrQLenPdf::42                      0                       # What write queue length does an incoming req see
system.mem_ctrls.wrQLenPdf::43                      0                       # What write queue length does an incoming req see
system.mem_ctrls.wrQLenPdf::44                      0                       # What write queue length does an incoming req see
system.mem_ctrls.wrQLenPdf::45                      0                       # What write queue length does an incoming req see
system.mem_ctrls.wrQLenPdf::46                      0                       # What write queue length does an incoming req see
system.mem_ctrls.wrQLenPdf::47                      0                       # What write queue length does an incoming req see
system.mem_ctrls.wrQLenPdf::48                      0                       # What write queue length does an incoming req see
system.mem_ctrls.wrQLenPdf::49                      0                       # What write queue length does an incoming req see
system.mem_ctrls.wrQLenPdf::50                      0                       # What write queue length does an incoming req see
system.mem_ctrls.wrQLenPdf::51                      0                       # What write queue length does an incoming req see
system.mem_ctrls.wrQLenPdf::52                      0                       # What write queue length does an incoming req see
system.mem_ctrls.wrQLenPdf::53                      0                       # What write queue length does an incoming req see
system.mem_ctrls.wrQLenPdf::54                      0                       # What write queue length does an incoming req see
system.mem_ctrls.wrQLenPdf::55                      0                       # What write queue length does an incoming req see
system.mem_ctrls.wrQLenPdf::56                      0                       # What write queue length does an incoming req see
system.mem_ctrls.wrQLenPdf::57                      0                       # What write queue length does an incoming req see
system.mem_ctrls.wrQLenPdf::58                      0                       # What write queue length does an incoming req see
system.mem_ctrls.wrQLenPdf::59                      0                       # What write queue length does an incoming req see
system.mem_ctrls.wrQLenPdf::60                      0                       # What write queue length does an incoming req see
system.mem_ctrls.wrQLenPdf::61                      0                       # What write queue length does an incoming req see
system.mem_ctrls.wrQLenPdf::62                      0                       # What write queue length does an incoming req see
system.mem_ctrls.wrQLenPdf::63                      0                       # What write queue length does an incoming req see
system.mem_ctrls.bytesPerActivate::samples       560936                       # Bytes accessed per row activation
system.mem_ctrls.bytesPerActivate::mean    118.591269                       # Bytes accessed per row activation
system.mem_ctrls.bytesPerActivate::gmean    88.785714                       # Bytes accessed per row activation
system.mem_ctrls.bytesPerActivate::stdev   147.525672                       # Bytes accessed per row activation
system.mem_ctrls.bytesPerActivate::0-127       402546     71.76%     71.76% # Bytes accessed per row activation
system.mem_ctrls.bytesPerActivate::128-255       106523     18.99%     90.75% # Bytes accessed per row activation
system.mem_ctrls.bytesPerActivate::256-383        22979      4.10%     94.85% # Bytes accessed per row activation
system.mem_ctrls.bytesPerActivate::384-511         7244      1.29%     96.14% # Bytes accessed per row activation
system.mem_ctrls.bytesPerActivate::512-639        10618      1.89%     98.03% # Bytes accessed per row activation
system.mem_ctrls.bytesPerActivate::640-767         1262      0.22%     98.26% # Bytes accessed per row activation
system.mem_ctrls.bytesPerActivate::768-895          928      0.17%     98.42% # Bytes accessed per row activation
system.mem_ctrls.bytesPerActivate::896-1023          750      0.13%     98.56% # Bytes accessed per row activation
system.mem_ctrls.bytesPerActivate::1024-1151         8086      1.44%    100.00% # Bytes accessed per row activation
system.mem_ctrls.bytesPerActivate::total       560936                       # Bytes accessed per row activation
system.mem_ctrls.rdPerTurnAround::samples        22743                       # Reads before turning the bus around for writes
system.mem_ctrls.rdPerTurnAround::mean      28.437761                       # Reads before turning the bus around for writes
system.mem_ctrls.rdPerTurnAround::gmean     23.545983                       # Reads before turning the bus around for writes
system.mem_ctrls.rdPerTurnAround::stdev    175.167223                       # Reads before turning the bus around for writes
system.mem_ctrls.rdPerTurnAround::0-1023        22728     99.93%     99.93% # Reads before turning the bus around for writes
system.mem_ctrls.rdPerTurnAround::1024-2047            8      0.04%     99.97% # Reads before turning the bus around for writes
system.mem_ctrls.rdPerTurnAround::2048-3071            1      0.00%     99.97% # Reads before turning the bus around for writes
system.mem_ctrls.rdPerTurnAround::3072-4095            1      0.00%     99.98% # Reads before turning the bus around for writes
system.mem_ctrls.rdPerTurnAround::4096-5119            1      0.00%     99.98% # Reads before turning the bus around for writes
system.mem_ctrls.rdPerTurnAround::5120-6143            1      0.00%     99.99% # Reads before turning the bus around for writes
system.mem_ctrls.rdPerTurnAround::6144-7167            1      0.00%     99.99% # Reads before turning the bus around for writes
system.mem_ctrls.rdPerTurnAround::8192-9215            1      0.00%    100.00% # Reads before turning the bus around for writes
system.mem_ctrls.rdPerTurnAround::21504-22527            1      0.00%    100.00% # Reads before turning the bus around for writes
system.mem_ctrls.rdPerTurnAround::total         22743                       # Reads before turning the bus around for writes
system.mem_ctrls.wrPerTurnAround::samples        22743                       # Writes before turning the bus around for reads
system.mem_ctrls.wrPerTurnAround::mean      17.251946                       # Writes before turning the bus around for reads
system.mem_ctrls.wrPerTurnAround::gmean     17.225256                       # Writes before turning the bus around for reads
system.mem_ctrls.wrPerTurnAround::stdev      0.950271                       # Writes before turning the bus around for reads
system.mem_ctrls.wrPerTurnAround::16             8074     35.50%     35.50% # Writes before turning the bus around for reads
system.mem_ctrls.wrPerTurnAround::17              916      4.03%     39.53% # Writes before turning the bus around for reads
system.mem_ctrls.wrPerTurnAround::18            13702     60.25%     99.78% # Writes before turning the bus around for reads
system.mem_ctrls.wrPerTurnAround::19               51      0.22%    100.00% # Writes before turning the bus around for reads
system.mem_ctrls.wrPerTurnAround::total         22743                       # Writes before turning the bus around for reads
system.mem_ctrls.totQLat                  21492203000                       # Total ticks spent queuing
system.mem_ctrls.totMemAccLat             33624334250                       # Total ticks spent from burst creation until serviced by the DRAM
system.mem_ctrls.totBusLat                 3235235000                       # Total ticks spent in databus transfers
system.mem_ctrls.avgQLat                     33215.83                       # Average queueing delay per DRAM burst
system.mem_ctrls.avgBusLat                    5000.00                       # Average bus latency per DRAM burst
system.mem_ctrls.avgMemAccLat                51965.83                       # Average memory access latency per DRAM burst
system.mem_ctrls.avgRdBW                        38.65                       # Average DRAM read bandwidth in MiByte/s
system.mem_ctrls.avgWrBW                        23.43                       # Average achieved write bandwidth in MiByte/s
system.mem_ctrls.avgRdBWSys                     38.70                       # Average system read bandwidth in MiByte/s
system.mem_ctrls.avgWrBWSys                     23.44                       # Average system write bandwidth in MiByte/s
system.mem_ctrls.peakBW                      12800.00                       # Theoretical peak bandwidth in MiByte/s
system.mem_ctrls.busUtil                         0.49                       # Data bus utilization in percentage
system.mem_ctrls.busUtilRead                     0.30                       # Data bus utilization in percentage for reads
system.mem_ctrls.busUtilWrite                    0.18                       # Data bus utilization in percentage for writes
system.mem_ctrls.avgRdQLen                       1.00                       # Average read queue length when enqueuing
system.mem_ctrls.avgWrQLen                      25.34                       # Average write queue length when enqueuing
system.mem_ctrls.readRowHits                   299321                       # Number of row buffer hits during reads
system.mem_ctrls.writeRowHits                  179151                       # Number of row buffer hits during writes
system.mem_ctrls.readRowHitRate                 46.26                       # Row buffer hit rate for reads
system.mem_ctrls.writeRowHitRate                45.66                       # Row buffer hit rate for writes
system.mem_ctrls.avgGap                    1029951.88                       # Average gap between requests
system.mem_ctrls.pageHitRate                    46.03                       # Row buffer hit rate, read and write combined
system.mem_ctrls_0.actEnergy               1982256780                       # Energy for activate commands per rank (pJ)
system.mem_ctrls_0.preEnergy               1053594465                       # Energy for precharge commands per rank (pJ)
system.mem_ctrls_0.readEnergy              2289690900                       # Energy for read commands per rank (pJ)
system.mem_ctrls_0.writeEnergy             1005706080                       # Energy for write commands per rank (pJ)
system.mem_ctrls_0.refreshEnergy         38908555920.000008                       # Energy for refresh commands per rank (pJ)
system.mem_ctrls_0.actBackEnergy          20615935560                       # Energy for active background per rank (pJ)
system.mem_ctrls_0.preBackEnergy           1613549760                       # Energy for precharge background per rank (pJ)
system.mem_ctrls_0.actPowerDownEnergy    117941027310                       # Energy for active power-down per rank (pJ)
system.mem_ctrls_0.prePowerDownEnergy     47879148960                       # Energy for precharge power-down per rank (pJ)
system.mem_ctrls_0.selfRefreshEnergy     157899131145                       # Energy for self refresh per rank (pJ)
system.mem_ctrls_0.totalEnergy           391200587070                       # Total energy per rank (pJ)
system.mem_ctrls_0.averagePower            365.078832                       # Core power per rank (mW)
system.mem_ctrls_0.totalIdleTime         1022094900750                       # Total Idle time Per DRAM Rank
system.mem_ctrls_0.memoryStateTime::IDLE   2562347750                       # Time in different power states
system.mem_ctrls_0.memoryStateTime::REF   16513710000                       # Time in different power states
system.mem_ctrls_0.memoryStateTime::SREF 638784072000                       # Time in different power states
system.mem_ctrls_0.memoryStateTime::PRE_PDN 124685846750                       # Time in different power states
system.mem_ctrls_0.memoryStateTime::ACT   30362809000                       # Time in different power states
system.mem_ctrls_0.memoryStateTime::ACT_PDN 258642213000                       # Time in different power states
system.mem_ctrls_1.actEnergy               2022826260                       # Energy for activate commands per rank (pJ)
system.mem_ctrls_1.preEnergy               1075157655                       # Energy for precharge commands per rank (pJ)
system.mem_ctrls_1.readEnergy              2330224680                       # Energy for read commands per rank (pJ)
system.mem_ctrls_1.writeEnergy             1042418340                       # Energy for write commands per rank (pJ)
system.mem_ctrls_1.refreshEnergy         39159943680.000008                       # Energy for refresh commands per rank (pJ)
system.mem_ctrls_1.actBackEnergy          21213915150                       # Energy for active background per rank (pJ)
system.mem_ctrls_1.preBackEnergy           1635296640                       # Energy for precharge background per rank (pJ)
system.mem_ctrls_1.actPowerDownEnergy    117767074710                       # Energy for active power-down per rank (pJ)
system.mem_ctrls_1.prePowerDownEnergy     48174684960                       # Energy for precharge power-down per rank (pJ)
system.mem_ctrls_1.selfRefreshEnergy     157586566545                       # Energy for self refresh per rank (pJ)
system.mem_ctrls_1.totalEnergy           392020213530                       # Total energy per rank (pJ)
system.mem_ctrls_1.averagePower            365.843727                       # Core power per rank (mW)
system.mem_ctrls_1.totalIdleTime         1020706435500                       # Total Idle time Per DRAM Rank
system.mem_ctrls_1.memoryStateTime::IDLE   2603131750                       # Time in different power states
system.mem_ctrls_1.memoryStateTime::REF   16621436000                       # Time in different power states
system.mem_ctrls_1.memoryStateTime::SREF 637027795000                       # Time in different power states
system.mem_ctrls_1.memoryStateTime::PRE_PDN 125455095500                       # Time in different power states
system.mem_ctrls_1.memoryStateTime::ACT   31582857250                       # Time in different power states
system.mem_ctrls_1.memoryStateTime::ACT_PDN 258260683000                       # Time in different power states
system.pwrStateResidencyTicks::UNDEFINED 1071550998500                       # Cumulative time (in ticks) in various power states
system.cpu_voltage_domain.voltage                   1                       # Voltage in Volts
system.cpu_clk_domain.clock                       500                       # Clock period in ticks
system.cpu.dtb.walker.pwrStateResidencyTicks::UNDEFINED 1071550998500                       # Cumulative time (in ticks) in various power states
system.cpu.apic_clk_domain.clock                 8000                       # Clock period in ticks
system.cpu.interrupts.pwrStateResidencyTicks::UNDEFINED 1071550998500                       # Cumulative time (in ticks) in various power states
system.cpu.itb.walker.pwrStateResidencyTicks::UNDEFINED 1071550998500                       # Cumulative time (in ticks) in various power states
system.cpu.workload.num_syscalls                   86                       # Number of system calls
system.cpu.pwrStateResidencyTicks::ON    1071550998500                       # Cumulative time (in ticks) in various power states
system.cpu.numCycles                       2143101997                       # number of cpu cycles simulated
system.cpu.numWorkItemsStarted                      0                       # number of work items this cpu started
system.cpu.numWorkItemsCompleted                    0                       # number of work items this cpu completed
system.cpu.committedInsts                   500000001                       # Number of instructions committed
system.cpu.committedOps                     730450447                       # Number of ops (including micro ops) committed
system.cpu.num_int_alu_accesses             729688906                       # Number of integer alu accesses
system.cpu.num_fp_alu_accesses                    663                       # Number of float alu accesses
system.cpu.num_func_calls                     1453961                       # number of times a function call or return occured
system.cpu.num_conditional_control_insts     31770496                       # number of instructions that are conditional controls
system.cpu.num_int_insts                    729688906                       # number of integer instructions
system.cpu.num_fp_insts                           663                       # number of float instructions
system.cpu.num_int_register_reads          1698743411                       # number of times the integer registers were read
system.cpu.num_int_register_writes          621892950                       # number of times the integer registers were written
system.cpu.num_fp_register_reads                 1009                       # number of times the floating registers were read
system.cpu.num_fp_register_writes                 429                       # number of times the floating registers were written
system.cpu.num_cc_register_reads            180840559                       # number of times the CC registers were read
system.cpu.num_cc_register_writes           276245121                       # number of times the CC registers were written
system.cpu.num_mem_refs                     295985461                       # number of memory refs
system.cpu.num_load_insts                   225946751                       # Number of load instructions
system.cpu.num_store_insts                   70038710                       # Number of store instructions
system.cpu.num_idle_cycles                          0                       # Number of idle cycles
system.cpu.num_busy_cycles                 2143101997                       # Number of busy cycles
system.cpu.not_idle_fraction                        1                       # Percentage of non-idle cycles
system.cpu.idle_fraction                            0                       # Percentage of idle cycles
system.cpu.Branches                          37843296                       # Number of branches fetched
system.cpu.op_class::No_OpClass                 94740      0.01%      0.01% # Class of executed instruction
system.cpu.op_class::IntAlu                 434349067     59.46%     59.48% # Class of executed instruction
system.cpu.op_class::IntMult                    20662      0.00%     59.48% # Class of executed instruction
system.cpu.op_class::IntDiv                       119      0.00%     59.48% # Class of executed instruction
system.cpu.op_class::FloatAdd                     398      0.00%     59.48% # Class of executed instruction
system.cpu.op_class::FloatCmp                       0      0.00%     59.48% # Class of executed instruction
system.cpu.op_class::FloatCvt                       0      0.00%     59.48% # Class of executed instruction
system.cpu.op_class::FloatMult                      0      0.00%     59.48% # Class of executed instruction
system.cpu.op_class::FloatDiv                       0      0.00%     59.48% # Class of executed instruction
system.cpu.op_class::FloatSqrt                      0      0.00%     59.48% # Class of executed instruction
system.cpu.op_class::SimdAdd                        0      0.00%     59.48% # Class of executed instruction
system.cpu.op_class::SimdAddAcc                     0      0.00%     59.48% # Class of executed instruction
system.cpu.op_class::SimdAlu                        0      0.00%     59.48% # Class of executed instruction
system.cpu.op_class::SimdCmp                        0      0.00%     59.48% # Class of executed instruction
system.cpu.op_class::SimdCvt                        0      0.00%     59.48% # Class of executed instruction
system.cpu.op_class::SimdMisc                       0      0.00%     59.48% # Class of executed instruction
system.cpu.op_class::SimdMult                       0      0.00%     59.48% # Class of executed instruction
system.cpu.op_class::SimdMultAcc                    0      0.00%     59.48% # Class of executed instruction
system.cpu.op_class::SimdShift                      0      0.00%     59.48% # Class of executed instruction
system.cpu.op_class::SimdShiftAcc                   0      0.00%     59.48% # Class of executed instruction
system.cpu.op_class::SimdSqrt                       0      0.00%     59.48% # Class of executed instruction
system.cpu.op_class::SimdFloatAdd                   0      0.00%     59.48% # Class of executed instruction
system.cpu.op_class::SimdFloatAlu                   0      0.00%     59.48% # Class of executed instruction
system.cpu.op_class::SimdFloatCmp                   0      0.00%     59.48% # Class of executed instruction
system.cpu.op_class::SimdFloatCvt                   0      0.00%     59.48% # Class of executed instruction
system.cpu.op_class::SimdFloatDiv                   0      0.00%     59.48% # Class of executed instruction
system.cpu.op_class::SimdFloatMisc                  0      0.00%     59.48% # Class of executed instruction
system.cpu.op_class::SimdFloatMult                  0      0.00%     59.48% # Class of executed instruction
system.cpu.op_class::SimdFloatMultAcc               0      0.00%     59.48% # Class of executed instruction
system.cpu.op_class::SimdFloatSqrt                  0      0.00%     59.48% # Class of executed instruction
system.cpu.op_class::MemRead                225946751     30.93%     90.41% # Class of executed instruction
system.cpu.op_class::MemWrite                70038710      9.59%    100.00% # Class of executed instruction
system.cpu.op_class::IprAccess                      0      0.00%    100.00% # Class of executed instruction
system.cpu.op_class::InstPrefetch                   0      0.00%    100.00% # Class of executed instruction
system.cpu.op_class::total                  730450447                       # Class of executed instruction
system.cpu.dcache.tags.pwrStateResidencyTicks::UNDEFINED 1071550998500                       # Cumulative time (in ticks) in various power states
system.cpu.dcache.tags.replacements           2465916                       # number of replacements
system.cpu.dcache.tags.tagsinuse          1021.226631                       # Cycle average of tags in use
system.cpu.dcache.tags.total_refs           293518529                       # Total number of references to valid blocks.
system.cpu.dcache.tags.sampled_refs           2466940                       # Sample count of references to valid blocks.
system.cpu.dcache.tags.avg_refs            118.980814                       # Average number of references to valid blocks.
system.cpu.dcache.tags.warmup_cycle        3726520500                       # Cycle when the warmup percentage was hit.
system.cpu.dcache.tags.occ_blocks::cpu.data  1021.226631                       # Average occupied blocks per requestor
system.cpu.dcache.tags.occ_percent::cpu.data     0.997292                       # Average percentage of cache occupancy
system.cpu.dcache.tags.occ_percent::total     0.997292                       # Average percentage of cache occupancy
system.cpu.dcache.tags.occ_task_id_blocks::1024         1024                       # Occupied blocks per task id
system.cpu.dcache.tags.age_task_id_blocks_1024::1            2                       # Occupied blocks per task id
system.cpu.dcache.tags.age_task_id_blocks_1024::2           16                       # Occupied blocks per task id
system.cpu.dcache.tags.age_task_id_blocks_1024::3          900                       # Occupied blocks per task id
system.cpu.dcache.tags.age_task_id_blocks_1024::4          106                       # Occupied blocks per task id
system.cpu.dcache.tags.occ_task_id_percent::1024            1                       # Percentage of cache occupancy per task id
system.cpu.dcache.tags.tag_accesses         594437878                       # Number of tag accesses
system.cpu.dcache.tags.data_accesses        594437878                       # Number of data accesses
system.cpu.dcache.pwrStateResidencyTicks::UNDEFINED 1071550998500                       # Cumulative time (in ticks) in various power states
system.cpu.dcache.ReadReq_hits::cpu.data    224130293                       # number of ReadReq hits
system.cpu.dcache.ReadReq_hits::total       224130293                       # number of ReadReq hits
system.cpu.dcache.WriteReq_hits::cpu.data     69388236                       # number of WriteReq hits
system.cpu.dcache.WriteReq_hits::total       69388236                       # number of WriteReq hits
system.cpu.dcache.demand_hits::cpu.data     293518529                       # number of demand (read+write) hits
system.cpu.dcache.demand_hits::total        293518529                       # number of demand (read+write) hits
system.cpu.dcache.overall_hits::cpu.data    293518529                       # number of overall hits
system.cpu.dcache.overall_hits::total       293518529                       # number of overall hits
system.cpu.dcache.ReadReq_misses::cpu.data      1800081                       # number of ReadReq misses
system.cpu.dcache.ReadReq_misses::total       1800081                       # number of ReadReq misses
system.cpu.dcache.WriteReq_misses::cpu.data       650475                       # number of WriteReq misses
system.cpu.dcache.WriteReq_misses::total       650475                       # number of WriteReq misses
system.cpu.dcache.SoftPFReq_misses::cpu.data        16384                       # number of SoftPFReq misses
system.cpu.dcache.SoftPFReq_misses::total        16384                       # number of SoftPFReq misses
system.cpu.dcache.demand_misses::cpu.data      2450556                       # number of demand (read+write) misses
system.cpu.dcache.demand_misses::total        2450556                       # number of demand (read+write) misses
system.cpu.dcache.overall_misses::cpu.data      2466940                       # number of overall misses
system.cpu.dcache.overall_misses::total       2466940                       # number of overall misses
system.cpu.dcache.ReadReq_miss_latency::cpu.data  52975395500                       # number of ReadReq miss cycles
system.cpu.dcache.ReadReq_miss_latency::total  52975395500                       # number of ReadReq miss cycles
system.cpu.dcache.WriteReq_miss_latency::cpu.data  37405434500                       # number of WriteReq miss cycles
system.cpu.dcache.WriteReq_miss_latency::total  37405434500                       # number of WriteReq miss cycles
system.cpu.dcache.demand_miss_latency::cpu.data  90380830000                       # number of demand (read+write) miss cycles
system.cpu.dcache.demand_miss_latency::total  90380830000                       # number of demand (read+write) miss cycles
system.cpu.dcache.overall_miss_latency::cpu.data  90380830000                       # number of overall miss cycles
system.cpu.dcache.overall_miss_latency::total  90380830000                       # number of overall miss cycles
system.cpu.dcache.ReadReq_accesses::cpu.data    225930374                       # number of ReadReq accesses(hits+misses)
system.cpu.dcache.ReadReq_accesses::total    225930374                       # number of ReadReq accesses(hits+misses)
system.cpu.dcache.WriteReq_accesses::cpu.data     70038711                       # number of WriteReq accesses(hits+misses)
system.cpu.dcache.WriteReq_accesses::total     70038711                       # number of WriteReq accesses(hits+misses)
system.cpu.dcache.SoftPFReq_accesses::cpu.data        16384                       # number of SoftPFReq accesses(hits+misses)
system.cpu.dcache.SoftPFReq_accesses::total        16384                       # number of SoftPFReq accesses(hits+misses)
system.cpu.dcache.demand_accesses::cpu.data    295969085                       # number of demand (read+write) accesses
system.cpu.dcache.demand_accesses::total    295969085                       # number of demand (read+write) accesses
system.cpu.dcache.overall_accesses::cpu.data    295985469                       # number of overall (read+write) accesses
system.cpu.dcache.overall_accesses::total    295985469                       # number of overall (read+write) accesses
system.cpu.dcache.ReadReq_miss_rate::cpu.data     0.007967                       # miss rate for ReadReq accesses
system.cpu.dcache.ReadReq_miss_rate::total     0.007967                       # miss rate for ReadReq accesses
system.cpu.dcache.WriteReq_miss_rate::cpu.data     0.009287                       # miss rate for WriteReq accesses
system.cpu.dcache.WriteReq_miss_rate::total     0.009287                       # miss rate for WriteReq accesses
system.cpu.dcache.SoftPFReq_miss_rate::cpu.data            1                       # miss rate for SoftPFReq accesses
system.cpu.dcache.SoftPFReq_miss_rate::total            1                       # miss rate for SoftPFReq accesses
system.cpu.dcache.demand_miss_rate::cpu.data     0.008280                       # miss rate for demand accesses
system.cpu.dcache.demand_miss_rate::total     0.008280                       # miss rate for demand accesses
system.cpu.dcache.overall_miss_rate::cpu.data     0.008335                       # miss rate for overall accesses
system.cpu.dcache.overall_miss_rate::total     0.008335                       # miss rate for overall accesses
system.cpu.dcache.ReadReq_avg_miss_latency::cpu.data 29429.450952                       # average ReadReq miss latency
system.cpu.dcache.ReadReq_avg_miss_latency::total 29429.450952                       # average ReadReq miss latency
system.cpu.dcache.WriteReq_avg_miss_latency::cpu.data 57504.799570                       # average WriteReq miss latency
system.cpu.dcache.WriteReq_avg_miss_latency::total 57504.799570                       # average WriteReq miss latency
system.cpu.dcache.demand_avg_miss_latency::cpu.data 36881.764791                       # average overall miss latency
system.cpu.dcache.demand_avg_miss_latency::total 36881.764791                       # average overall miss latency
system.cpu.dcache.overall_avg_miss_latency::cpu.data 36636.817272                       # average overall miss latency
system.cpu.dcache.overall_avg_miss_latency::total 36636.817272                       # average overall miss latency
system.cpu.dcache.blocked_cycles::no_mshrs       295169                       # number of cycles access was blocked
system.cpu.dcache.blocked_cycles::no_targets            0                       # number of cycles access was blocked
system.cpu.dcache.blocked::no_mshrs              5124                       # number of cycles access was blocked
system.cpu.dcache.blocked::no_targets               0                       # number of cycles access was blocked
system.cpu.dcache.avg_blocked_cycles::no_mshrs    57.605191                       # average number of cycles each access was blocked
system.cpu.dcache.avg_blocked_cycles::no_targets          nan                       # average number of cycles each access was blocked
system.cpu.dcache.writebacks::writebacks      1154622                       # number of writebacks
system.cpu.dcache.writebacks::total           1154622                       # number of writebacks
system.cpu.dcache.ReadReq_mshr_misses::cpu.data      1800081                       # number of ReadReq MSHR misses
system.cpu.dcache.ReadReq_mshr_misses::total      1800081                       # number of ReadReq MSHR misses
system.cpu.dcache.WriteReq_mshr_misses::cpu.data       650475                       # number of WriteReq MSHR misses
system.cpu.dcache.WriteReq_mshr_misses::total       650475                       # number of WriteReq MSHR misses
system.cpu.dcache.SoftPFReq_mshr_misses::cpu.data        16384                       # number of SoftPFReq MSHR misses
system.cpu.dcache.SoftPFReq_mshr_misses::total        16384                       # number of SoftPFReq MSHR misses
system.cpu.dcache.demand_mshr_misses::cpu.data      2450556                       # number of demand (read+write) MSHR misses
system.cpu.dcache.demand_mshr_misses::total      2450556                       # number of demand (read+write) MSHR misses
system.cpu.dcache.overall_mshr_misses::cpu.data      2466940                       # number of overall MSHR misses
system.cpu.dcache.overall_mshr_misses::total      2466940                       # number of overall MSHR misses
system.cpu.dcache.ReadReq_mshr_miss_latency::cpu.data  51175314500                       # number of ReadReq MSHR miss cycles
system.cpu.dcache.ReadReq_mshr_miss_latency::total  51175314500                       # number of ReadReq MSHR miss cycles
system.cpu.dcache.WriteReq_mshr_miss_latency::cpu.data  36754959500                       # number of WriteReq MSHR miss cycles
system.cpu.dcache.WriteReq_mshr_miss_latency::total  36754959500                       # number of WriteReq MSHR miss cycles
system.cpu.dcache.SoftPFReq_mshr_miss_latency::cpu.data   1400615477                       # number of SoftPFReq MSHR miss cycles
system.cpu.dcache.SoftPFReq_mshr_miss_latency::total   1400615477                       # number of SoftPFReq MSHR miss cycles
system.cpu.dcache.demand_mshr_miss_latency::cpu.data  87930274000                       # number of demand (read+write) MSHR miss cycles
system.cpu.dcache.demand_mshr_miss_latency::total  87930274000                       # number of demand (read+write) MSHR miss cycles
system.cpu.dcache.overall_mshr_miss_latency::cpu.data  89330889477                       # number of overall MSHR miss cycles
system.cpu.dcache.overall_mshr_miss_latency::total  89330889477                       # number of overall MSHR miss cycles
system.cpu.dcache.ReadReq_mshr_miss_rate::cpu.data     0.007967                       # mshr miss rate for ReadReq accesses
system.cpu.dcache.ReadReq_mshr_miss_rate::total     0.007967                       # mshr miss rate for ReadReq accesses
system.cpu.dcache.WriteReq_mshr_miss_rate::cpu.data     0.009287                       # mshr miss rate for WriteReq accesses
system.cpu.dcache.WriteReq_mshr_miss_rate::total     0.009287                       # mshr miss rate for WriteReq accesses
system.cpu.dcache.SoftPFReq_mshr_miss_rate::cpu.data            1                       # mshr miss rate for SoftPFReq accesses
system.cpu.dcache.SoftPFReq_mshr_miss_rate::total            1                       # mshr miss rate for SoftPFReq accesses
system.cpu.dcache.demand_mshr_miss_rate::cpu.data     0.008280                       # mshr miss rate for demand accesses
system.cpu.dcache.demand_mshr_miss_rate::total     0.008280                       # mshr miss rate for demand accesses
system.cpu.dcache.overall_mshr_miss_rate::cpu.data     0.008335                       # mshr miss rate for overall accesses
system.cpu.dcache.overall_mshr_miss_rate::total     0.008335                       # mshr miss rate for overall accesses
system.cpu.dcache.ReadReq_avg_mshr_miss_latency::cpu.data 28429.450952                       # average ReadReq mshr miss latency
system.cpu.dcache.ReadReq_avg_mshr_miss_latency::total 28429.450952                       # average ReadReq mshr miss latency
system.cpu.dcache.WriteReq_avg_mshr_miss_latency::cpu.data 56504.799570                       # average WriteReq mshr miss latency
system.cpu.dcache.WriteReq_avg_mshr_miss_latency::total 56504.799570                       # average WriteReq mshr miss latency
system.cpu.dcache.SoftPFReq_avg_mshr_miss_latency::cpu.data 85486.784485                       # average SoftPFReq mshr miss latency
system.cpu.dcache.SoftPFReq_avg_mshr_miss_latency::total 85486.784485                       # average SoftPFReq mshr miss latency
system.cpu.dcache.demand_avg_mshr_miss_latency::cpu.data 35881.764791                       # average overall mshr miss latency
system.cpu.dcache.demand_avg_mshr_miss_latency::total 35881.764791                       # average overall mshr miss latency
system.cpu.dcache.overall_avg_mshr_miss_latency::cpu.data 36211.212870                       # average overall mshr miss latency
system.cpu.dcache.overall_avg_mshr_miss_latency::total 36211.212870                       # average overall mshr miss latency
system.cpu.dtb_walker_cache.tags.pwrStateResidencyTicks::UNDEFINED 1071550998500                       # Cumulative time (in ticks) in various power states
system.cpu.dtb_walker_cache.tags.replacements            0                       # number of replacements
system.cpu.dtb_walker_cache.tags.tagsinuse            0                       # Cycle average of tags in use
system.cpu.dtb_walker_cache.tags.total_refs            0                       # Total number of references to valid blocks.
system.cpu.dtb_walker_cache.tags.sampled_refs            0                       # Sample count of references to valid blocks.
system.cpu.dtb_walker_cache.tags.avg_refs          nan                       # Average number of references to valid blocks.
system.cpu.dtb_walker_cache.tags.warmup_cycle            0                       # Cycle when the warmup percentage was hit.
system.cpu.dtb_walker_cache.tags.tag_accesses            0                       # Number of tag accesses
system.cpu.dtb_walker_cache.tags.data_accesses            0                       # Number of data accesses
system.cpu.dtb_walker_cache.pwrStateResidencyTicks::UNDEFINED 1071550998500                       # Cumulative time (in ticks) in various power states
system.cpu.dtb_walker_cache.blocked_cycles::no_mshrs            0                       # number of cycles access was blocked
system.cpu.dtb_walker_cache.blocked_cycles::no_targets            0                       # number of cycles access was blocked
system.cpu.dtb_walker_cache.blocked::no_mshrs            0                       # number of cycles access was blocked
system.cpu.dtb_walker_cache.blocked::no_targets            0                       # number of cycles access was blocked
system.cpu.dtb_walker_cache.avg_blocked_cycles::no_mshrs          nan                       # average number of cycles each access was blocked
system.cpu.dtb_walker_cache.avg_blocked_cycles::no_targets          nan                       # average number of cycles each access was blocked
system.cpu.icache.tags.pwrStateResidencyTicks::UNDEFINED 1071550998500                       # Cumulative time (in ticks) in various power states
system.cpu.icache.tags.replacements               529                       # number of replacements
system.cpu.icache.tags.tagsinuse           459.548242                       # Cycle average of tags in use
system.cpu.icache.tags.total_refs           687396827                       # Total number of references to valid blocks.
system.cpu.icache.tags.sampled_refs              1035                       # Sample count of references to valid blocks.
system.cpu.icache.tags.avg_refs          664151.523671                       # Average number of references to valid blocks.
system.cpu.icache.tags.warmup_cycle                 0                       # Cycle when the warmup percentage was hit.
system.cpu.icache.tags.occ_blocks::cpu.inst   459.548242                       # Average occupied blocks per requestor
system.cpu.icache.tags.occ_percent::cpu.inst     0.897555                       # Average percentage of cache occupancy
system.cpu.icache.tags.occ_percent::total     0.897555                       # Average percentage of cache occupancy
system.cpu.icache.tags.occ_task_id_blocks::1024          506                       # Occupied blocks per task id
system.cpu.icache.tags.age_task_id_blocks_1024::1            7                       # Occupied blocks per task id
system.cpu.icache.tags.age_task_id_blocks_1024::3           25                       # Occupied blocks per task id
system.cpu.icache.tags.age_task_id_blocks_1024::4          474                       # Occupied blocks per task id
system.cpu.icache.tags.occ_task_id_percent::1024     0.988281                       # Percentage of cache occupancy per task id
system.cpu.icache.tags.tag_accesses        1374796759                       # Number of tag accesses
system.cpu.icache.tags.data_accesses       1374796759                       # Number of data accesses
system.cpu.icache.pwrStateResidencyTicks::UNDEFINED 1071550998500                       # Cumulative time (in ticks) in various power states
system.cpu.icache.ReadReq_hits::cpu.inst    687396827                       # number of ReadReq hits
system.cpu.icache.ReadReq_hits::total       687396827                       # number of ReadReq hits
system.cpu.icache.demand_hits::cpu.inst     687396827                       # number of demand (read+write) hits
system.cpu.icache.demand_hits::total        687396827                       # number of demand (read+write) hits
system.cpu.icache.overall_hits::cpu.inst    687396827                       # number of overall hits
system.cpu.icache.overall_hits::total       687396827                       # number of overall hits
system.cpu.icache.ReadReq_misses::cpu.inst         1035                       # number of ReadReq misses
system.cpu.icache.ReadReq_misses::total          1035                       # number of ReadReq misses
system.cpu.icache.demand_misses::cpu.inst         1035                       # number of demand (read+write) misses
system.cpu.icache.demand_misses::total           1035                       # number of demand (read+write) misses
system.cpu.icache.overall_misses::cpu.inst         1035                       # number of overall misses
system.cpu.icache.overall_misses::total          1035                       # number of overall misses
system.cpu.icache.ReadReq_miss_latency::cpu.inst     98452500                       # number of ReadReq miss cycles
system.cpu.icache.ReadReq_miss_latency::total     98452500                       # number of ReadReq miss cycles
system.cpu.icache.demand_miss_latency::cpu.inst     98452500                       # number of demand (read+write) miss cycles
system.cpu.icache.demand_miss_latency::total     98452500                       # number of demand (read+write) miss cycles
system.cpu.icache.overall_miss_latency::cpu.inst     98452500                       # number of overall miss cycles
system.cpu.icache.overall_miss_latency::total     98452500                       # number of overall miss cycles
system.cpu.icache.ReadReq_accesses::cpu.inst    687397862                       # number of ReadReq accesses(hits+misses)
system.cpu.icache.ReadReq_accesses::total    687397862                       # number of ReadReq accesses(hits+misses)
system.cpu.icache.demand_accesses::cpu.inst    687397862                       # number of demand (read+write) accesses
system.cpu.icache.demand_accesses::total    687397862                       # number of demand (read+write) accesses
system.cpu.icache.overall_accesses::cpu.inst    687397862                       # number of overall (read+write) accesses
system.cpu.icache.overall_accesses::total    687397862                       # number of overall (read+write) accesses
system.cpu.icache.ReadReq_miss_rate::cpu.inst     0.000002                       # miss rate for ReadReq accesses
system.cpu.icache.ReadReq_miss_rate::total     0.000002                       # miss rate for ReadReq accesses
system.cpu.icache.demand_miss_rate::cpu.inst     0.000002                       # miss rate for demand accesses
system.cpu.icache.demand_miss_rate::total     0.000002                       # miss rate for demand accesses
system.cpu.icache.overall_miss_rate::cpu.inst     0.000002                       # miss rate for overall accesses
system.cpu.icache.overall_miss_rate::total     0.000002                       # miss rate for overall accesses
system.cpu.icache.ReadReq_avg_miss_latency::cpu.inst 95123.188406                       # average ReadReq miss latency
system.cpu.icache.ReadReq_avg_miss_latency::total 95123.188406                       # average ReadReq miss latency
system.cpu.icache.demand_avg_miss_latency::cpu.inst 95123.188406                       # average overall miss latency
system.cpu.icache.demand_avg_miss_latency::total 95123.188406                       # average overall miss latency
system.cpu.icache.overall_avg_miss_latency::cpu.inst 95123.188406                       # average overall miss latency
system.cpu.icache.overall_avg_miss_latency::total 95123.188406                       # average overall miss latency
system.cpu.icache.blocked_cycles::no_mshrs            0                       # number of cycles access was blocked
system.cpu.icache.blocked_cycles::no_targets            0                       # number of cycles access was blocked
system.cpu.icache.blocked::no_mshrs                 0                       # number of cycles access was blocked
system.cpu.icache.blocked::no_targets               0                       # number of cycles access was blocked
system.cpu.icache.avg_blocked_cycles::no_mshrs          nan                       # average number of cycles each access was blocked
system.cpu.icache.avg_blocked_cycles::no_targets          nan                       # average number of cycles each access was blocked
system.cpu.icache.writebacks::writebacks          529                       # number of writebacks
system.cpu.icache.writebacks::total               529                       # number of writebacks
system.cpu.icache.ReadReq_mshr_misses::cpu.inst         1035                       # number of ReadReq MSHR misses
system.cpu.icache.ReadReq_mshr_misses::total         1035                       # number of ReadReq MSHR misses
system.cpu.icache.demand_mshr_misses::cpu.inst         1035                       # number of demand (read+write) MSHR misses
system.cpu.icache.demand_mshr_misses::total         1035                       # number of demand (read+write) MSHR misses
system.cpu.icache.overall_mshr_misses::cpu.inst         1035                       # number of overall MSHR misses
system.cpu.icache.overall_mshr_misses::total         1035                       # number of overall MSHR misses
system.cpu.icache.ReadReq_mshr_miss_latency::cpu.inst     97417500                       # number of ReadReq MSHR miss cycles
system.cpu.icache.ReadReq_mshr_miss_latency::total     97417500                       # number of ReadReq MSHR miss cycles
system.cpu.icache.demand_mshr_miss_latency::cpu.inst     97417500                       # number of demand (read+write) MSHR miss cycles
system.cpu.icache.demand_mshr_miss_latency::total     97417500                       # number of demand (read+write) MSHR miss cycles
system.cpu.icache.overall_mshr_miss_latency::cpu.inst     97417500                       # number of overall MSHR miss cycles
system.cpu.icache.overall_mshr_miss_latency::total     97417500                       # number of overall MSHR miss cycles
system.cpu.icache.ReadReq_mshr_miss_rate::cpu.inst     0.000002                       # mshr miss rate for ReadReq accesses
system.cpu.icache.ReadReq_mshr_miss_rate::total     0.000002                       # mshr miss rate for ReadReq accesses
system.cpu.icache.demand_mshr_miss_rate::cpu.inst     0.000002                       # mshr miss rate for demand accesses
system.cpu.icache.demand_mshr_miss_rate::total     0.000002                       # mshr miss rate for demand accesses
system.cpu.icache.overall_mshr_miss_rate::cpu.inst     0.000002                       # mshr miss rate for overall accesses
system.cpu.icache.overall_mshr_miss_rate::total     0.000002                       # mshr miss rate for overall accesses
system.cpu.icache.ReadReq_avg_mshr_miss_latency::cpu.inst 94123.188406                       # average ReadReq mshr miss latency
system.cpu.icache.ReadReq_avg_mshr_miss_latency::total 94123.188406                       # average ReadReq mshr miss latency
system.cpu.icache.demand_avg_mshr_miss_latency::cpu.inst 94123.188406                       # average overall mshr miss latency
system.cpu.icache.demand_avg_mshr_miss_latency::total 94123.188406                       # average overall mshr miss latency
system.cpu.icache.overall_avg_mshr_miss_latency::cpu.inst 94123.188406                       # average overall mshr miss latency
system.cpu.icache.overall_avg_mshr_miss_latency::total 94123.188406                       # average overall mshr miss latency
system.cpu.itb_walker_cache.tags.pwrStateResidencyTicks::UNDEFINED 1071550998500                       # Cumulative time (in ticks) in various power states
system.cpu.itb_walker_cache.tags.replacements            0                       # number of replacements
system.cpu.itb_walker_cache.tags.tagsinuse            0                       # Cycle average of tags in use
system.cpu.itb_walker_cache.tags.total_refs            0                       # Total number of references to valid blocks.
system.cpu.itb_walker_cache.tags.sampled_refs            0                       # Sample count of references to valid blocks.
system.cpu.itb_walker_cache.tags.avg_refs          nan                       # Average number of references to valid blocks.
system.cpu.itb_walker_cache.tags.warmup_cycle            0                       # Cycle when the warmup percentage was hit.
system.cpu.itb_walker_cache.tags.tag_accesses            0                       # Number of tag accesses
system.cpu.itb_walker_cache.tags.data_accesses            0                       # Number of data accesses
system.cpu.itb_walker_cache.pwrStateResidencyTicks::UNDEFINED 1071550998500                       # Cumulative time (in ticks) in various power states
system.cpu.itb_walker_cache.blocked_cycles::no_mshrs            0                       # number of cycles access was blocked
system.cpu.itb_walker_cache.blocked_cycles::no_targets            0                       # number of cycles access was blocked
system.cpu.itb_walker_cache.blocked::no_mshrs            0                       # number of cycles access was blocked
system.cpu.itb_walker_cache.blocked::no_targets            0                       # number of cycles access was blocked
system.cpu.itb_walker_cache.avg_blocked_cycles::no_mshrs          nan                       # average number of cycles each access was blocked
system.cpu.itb_walker_cache.avg_blocked_cycles::no_targets          nan                       # average number of cycles each access was blocked
system.l2.tags.pwrStateResidencyTicks::UNDEFINED 1071550998500                       # Cumulative time (in ticks) in various power states
system.l2.tags.replacements                    636076                       # number of replacements
system.l2.tags.tagsinuse                 16328.916441                       # Cycle average of tags in use
system.l2.tags.total_refs                     4277213                       # Total number of references to valid blocks.
system.l2.tags.sampled_refs                    652460                       # Sample count of references to valid blocks.
system.l2.tags.avg_refs                      6.555518                       # Average number of references to valid blocks.
system.l2.tags.warmup_cycle                4225147000                       # Cycle when the warmup percentage was hit.
system.l2.tags.occ_blocks::writebacks       85.001310                       # Average occupied blocks per requestor
system.l2.tags.occ_blocks::cpu.inst         18.202587                       # Average occupied blocks per requestor
system.l2.tags.occ_blocks::cpu.data      16225.712544                       # Average occupied blocks per requestor
system.l2.tags.occ_percent::writebacks       0.005188                       # Average percentage of cache occupancy
system.l2.tags.occ_percent::cpu.inst         0.001111                       # Average percentage of cache occupancy
system.l2.tags.occ_percent::cpu.data         0.990339                       # Average percentage of cache occupancy
system.l2.tags.occ_percent::total            0.996638                       # Average percentage of cache occupancy
system.l2.tags.occ_task_id_blocks::1024         16384                       # Occupied blocks per task id
system.l2.tags.age_task_id_blocks_1024::1           15                       # Occupied blocks per task id
system.l2.tags.age_task_id_blocks_1024::2           16                       # Occupied blocks per task id
system.l2.tags.age_task_id_blocks_1024::3          245                       # Occupied blocks per task id
system.l2.tags.age_task_id_blocks_1024::4        16108                       # Occupied blocks per task id
system.l2.tags.occ_task_id_percent::1024            1                       # Percentage of cache occupancy per task id
system.l2.tags.tag_accesses                  10521298                       # Number of tag accesses
system.l2.tags.data_accesses                 10521298                       # Number of data accesses
system.l2.pwrStateResidencyTicks::UNDEFINED 1071550998500                       # Cumulative time (in ticks) in various power states
system.l2.WritebackDirty_hits::writebacks      1154622                       # number of WritebackDirty hits
system.l2.WritebackDirty_hits::total          1154622                       # number of WritebackDirty hits
system.l2.WritebackClean_hits::writebacks          529                       # number of WritebackClean hits
system.l2.WritebackClean_hits::total              529                       # number of WritebackClean hits
system.l2.ReadExReq_hits::cpu.data             327380                       # number of ReadExReq hits
system.l2.ReadExReq_hits::total                327380                       # number of ReadExReq hits
system.l2.ReadCleanReq_hits::cpu.inst              31                       # number of ReadCleanReq hits
system.l2.ReadCleanReq_hits::total                 31                       # number of ReadCleanReq hits
system.l2.ReadSharedReq_hits::cpu.data        1492594                       # number of ReadSharedReq hits
system.l2.ReadSharedReq_hits::total           1492594                       # number of ReadSharedReq hits
system.l2.demand_hits::cpu.inst                    31                       # number of demand (read+write) hits
system.l2.demand_hits::cpu.data               1819974                       # number of demand (read+write) hits
system.l2.demand_hits::total                  1820005                       # number of demand (read+write) hits
system.l2.overall_hits::cpu.inst                   31                       # number of overall hits
system.l2.overall_hits::cpu.data              1819974                       # number of overall hits
system.l2.overall_hits::total                 1820005                       # number of overall hits
system.l2.ReadExReq_misses::cpu.data           323095                       # number of ReadExReq misses
system.l2.ReadExReq_misses::total              323095                       # number of ReadExReq misses
system.l2.ReadCleanReq_misses::cpu.inst          1004                       # number of ReadCleanReq misses
system.l2.ReadCleanReq_misses::total             1004                       # number of ReadCleanReq misses
system.l2.ReadSharedReq_misses::cpu.data       323871                       # number of ReadSharedReq misses
system.l2.ReadSharedReq_misses::total          323871                       # number of ReadSharedReq misses
system.l2.demand_misses::cpu.inst                1004                       # number of demand (read+write) misses
system.l2.demand_misses::cpu.data              646966                       # number of demand (read+write) misses
system.l2.demand_misses::total                 647970                       # number of demand (read+write) misses
system.l2.overall_misses::cpu.inst               1004                       # number of overall misses
system.l2.overall_misses::cpu.data             646966                       # number of overall misses
system.l2.overall_misses::total                647970                       # number of overall misses
system.l2.ReadExReq_miss_latency::cpu.data  32341756000                       # number of ReadExReq miss cycles
system.l2.ReadExReq_miss_latency::total   32341756000                       # number of ReadExReq miss cycles
system.l2.ReadCleanReq_miss_latency::cpu.inst     95537500                       # number of ReadCleanReq miss cycles
system.l2.ReadCleanReq_miss_latency::total     95537500                       # number of ReadCleanReq miss cycles
system.l2.ReadSharedReq_miss_latency::cpu.data  34178947000                       # number of ReadSharedReq miss cycles
system.l2.ReadSharedReq_miss_latency::total  34178947000                       # number of ReadSharedReq miss cycles
system.l2.demand_miss_latency::cpu.inst      95537500                       # number of demand (read+write) miss cycles
system.l2.demand_miss_latency::cpu.data   66520703000                       # number of demand (read+write) miss cycles
system.l2.demand_miss_latency::total      66616240500                       # number of demand (read+write) miss cycles
system.l2.overall_miss_latency::cpu.inst     95537500                       # number of overall miss cycles
system.l2.overall_miss_latency::cpu.data  66520703000                       # number of overall miss cycles
system.l2.overall_miss_latency::total     66616240500                       # number of overall miss cycles
system.l2.WritebackDirty_accesses::writebacks      1154622                       # number of WritebackDirty accesses(hits+misses)
system.l2.WritebackDirty_accesses::total      1154622                       # number of WritebackDirty accesses(hits+misses)
system.l2.WritebackClean_accesses::writebacks          529                       # number of WritebackClean accesses(hits+misses)
system.l2.WritebackClean_accesses::total          529                       # number of WritebackClean accesses(hits+misses)
system.l2.ReadExReq_accesses::cpu.data         650475                       # number of ReadExReq accesses(hits+misses)
system.l2.ReadExReq_accesses::total            650475                       # number of ReadExReq accesses(hits+misses)
system.l2.ReadCleanReq_accesses::cpu.inst         1035                       # number of ReadCleanReq accesses(hits+misses)
system.l2.ReadCleanReq_accesses::total           1035                       # number of ReadCleanReq accesses(hits+misses)
system.l2.ReadSharedReq_accesses::cpu.data      1816465                       # number of ReadSharedReq accesses(hits+misses)
system.l2.ReadSharedReq_accesses::total       1816465                       # number of ReadSharedReq accesses(hits+misses)
system.l2.demand_accesses::cpu.inst              1035                       # number of demand (read+write) accesses
system.l2.demand_accesses::cpu.data           2466940                       # number of demand (read+write) accesses
system.l2.demand_accesses::total              2467975                       # number of demand (read+write) accesses
system.l2.overall_accesses::cpu.inst             1035                       # number of overall (read+write) accesses
system.l2.overall_accesses::cpu.data          2466940                       # number of overall (read+write) accesses
system.l2.overall_accesses::total             2467975                       # number of overall (read+write) accesses
system.l2.ReadExReq_miss_rate::cpu.data      0.496706                       # miss rate for ReadExReq accesses
system.l2.ReadExReq_miss_rate::total         0.496706                       # miss rate for ReadExReq accesses
system.l2.ReadCleanReq_miss_rate::cpu.inst     0.970048                       # miss rate for ReadCleanReq accesses
system.l2.ReadCleanReq_miss_rate::total      0.970048                       # miss rate for ReadCleanReq accesses
system.l2.ReadSharedReq_miss_rate::cpu.data     0.178297                       # miss rate for ReadSharedReq accesses
system.l2.ReadSharedReq_miss_rate::total     0.178297                       # miss rate for ReadSharedReq accesses
system.l2.demand_miss_rate::cpu.inst         0.970048                       # miss rate for demand accesses
system.l2.demand_miss_rate::cpu.data         0.262254                       # miss rate for demand accesses
system.l2.demand_miss_rate::total            0.262551                       # miss rate for demand accesses
system.l2.overall_miss_rate::cpu.inst        0.970048                       # miss rate for overall accesses
system.l2.overall_miss_rate::cpu.data        0.262254                       # miss rate for overall accesses
system.l2.overall_miss_rate::total           0.262551                       # miss rate for overall accesses
system.l2.ReadExReq_avg_miss_latency::cpu.data 100099.834414                       # average ReadExReq miss latency
system.l2.ReadExReq_avg_miss_latency::total 100099.834414                       # average ReadExReq miss latency
system.l2.ReadCleanReq_avg_miss_latency::cpu.inst 95156.872510                       # average ReadCleanReq miss latency
system.l2.ReadCleanReq_avg_miss_latency::total 95156.872510                       # average ReadCleanReq miss latency
system.l2.ReadSharedReq_avg_miss_latency::cpu.data 105532.594768                       # average ReadSharedReq miss latency
system.l2.ReadSharedReq_avg_miss_latency::total 105532.594768                       # average ReadSharedReq miss latency
system.l2.demand_avg_miss_latency::cpu.inst 95156.872510                       # average overall miss latency
system.l2.demand_avg_miss_latency::cpu.data 102819.472739                       # average overall miss latency
system.l2.demand_avg_miss_latency::total 102807.599889                       # average overall miss latency
system.l2.overall_avg_miss_latency::cpu.inst 95156.872510                       # average overall miss latency
system.l2.overall_avg_miss_latency::cpu.data 102819.472739                       # average overall miss latency
system.l2.overall_avg_miss_latency::total 102807.599889                       # average overall miss latency
system.l2.blocked_cycles::no_mshrs                  0                       # number of cycles access was blocked
system.l2.blocked_cycles::no_targets                0                       # number of cycles access was blocked
system.l2.blocked::no_mshrs                         0                       # number of cycles access was blocked
system.l2.blocked::no_targets                       0                       # number of cycles access was blocked
system.l2.avg_blocked_cycles::no_mshrs            nan                       # average number of cycles each access was blocked
system.l2.avg_blocked_cycles::no_targets          nan                       # average number of cycles each access was blocked
system.l2.writebacks::writebacks               392387                       # number of writebacks
system.l2.writebacks::total                    392387                       # number of writebacks
system.l2.CleanEvict_mshr_misses::writebacks         4746                       # number of CleanEvict MSHR misses
system.l2.CleanEvict_mshr_misses::total          4746                       # number of CleanEvict MSHR misses
system.l2.ReadExReq_mshr_misses::cpu.data       323095                       # number of ReadExReq MSHR misses
system.l2.ReadExReq_mshr_misses::total         323095                       # number of ReadExReq MSHR misses
system.l2.ReadCleanReq_mshr_misses::cpu.inst         1004                       # number of ReadCleanReq MSHR misses
system.l2.ReadCleanReq_mshr_misses::total         1004                       # number of ReadCleanReq MSHR misses
system.l2.ReadSharedReq_mshr_misses::cpu.data       323871                       # number of ReadSharedReq MSHR misses
system.l2.ReadSharedReq_mshr_misses::total       323871                       # number of ReadSharedReq MSHR misses
system.l2.demand_mshr_misses::cpu.inst           1004                       # number of demand (read+write) MSHR misses
system.l2.demand_mshr_misses::cpu.data         646966                       # number of demand (read+write) MSHR misses
system.l2.demand_mshr_misses::total            647970                       # number of demand (read+write) MSHR misses
system.l2.overall_mshr_misses::cpu.inst          1004                       # number of overall MSHR misses
system.l2.overall_mshr_misses::cpu.data        646966                       # number of overall MSHR misses
system.l2.overall_mshr_misses::total           647970                       # number of overall MSHR misses
system.l2.ReadExReq_mshr_miss_latency::cpu.data  29110806000                       # number of ReadExReq MSHR miss cycles
system.l2.ReadExReq_mshr_miss_latency::total  29110806000                       # number of ReadExReq MSHR miss cycles
system.l2.ReadCleanReq_mshr_miss_latency::cpu.inst     85497500                       # number of ReadCleanReq MSHR miss cycles
system.l2.ReadCleanReq_mshr_miss_latency::total     85497500                       # number of ReadCleanReq MSHR miss cycles
system.l2.ReadSharedReq_mshr_miss_latency::cpu.data  30940237000                       # number of ReadSharedReq MSHR miss cycles
system.l2.ReadSharedReq_mshr_miss_latency::total  30940237000                       # number of ReadSharedReq MSHR miss cycles
system.l2.demand_mshr_miss_latency::cpu.inst     85497500                       # number of demand (read+write) MSHR miss cycles
system.l2.demand_mshr_miss_latency::cpu.data  60051043000                       # number of demand (read+write) MSHR miss cycles
system.l2.demand_mshr_miss_latency::total  60136540500                       # number of demand (read+write) MSHR miss cycles
system.l2.overall_mshr_miss_latency::cpu.inst     85497500                       # number of overall MSHR miss cycles
system.l2.overall_mshr_miss_latency::cpu.data  60051043000                       # number of overall MSHR miss cycles
system.l2.overall_mshr_miss_latency::total  60136540500                       # number of overall MSHR miss cycles
system.l2.CleanEvict_mshr_miss_rate::writebacks          inf                       # mshr miss rate for CleanEvict accesses
system.l2.CleanEvict_mshr_miss_rate::total          inf                       # mshr miss rate for CleanEvict accesses
system.l2.ReadExReq_mshr_miss_rate::cpu.data     0.496706                       # mshr miss rate for ReadExReq accesses
system.l2.ReadExReq_mshr_miss_rate::total     0.496706                       # mshr miss rate for ReadExReq accesses
system.l2.ReadCleanReq_mshr_miss_rate::cpu.inst     0.970048                       # mshr miss rate for ReadCleanReq accesses
system.l2.ReadCleanReq_mshr_miss_rate::total     0.970048                       # mshr miss rate for ReadCleanReq accesses
system.l2.ReadSharedReq_mshr_miss_rate::cpu.data     0.178297                       # mshr miss rate for ReadSharedReq accesses
system.l2.ReadSharedReq_mshr_miss_rate::total     0.178297                       # mshr miss rate for ReadSharedReq accesses
system.l2.demand_mshr_miss_rate::cpu.inst     0.970048                       # mshr miss rate for demand accesses
system.l2.demand_mshr_miss_rate::cpu.data     0.262254                       # mshr miss rate for demand accesses
system.l2.demand_mshr_miss_rate::total       0.262551                       # mshr miss rate for demand accesses
system.l2.overall_mshr_miss_rate::cpu.inst     0.970048                       # mshr miss rate for overall accesses
system.l2.overall_mshr_miss_rate::cpu.data     0.262254                       # mshr miss rate for overall accesses
system.l2.overall_mshr_miss_rate::total      0.262551                       # mshr miss rate for overall accesses
system.l2.ReadExReq_avg_mshr_miss_latency::cpu.data 90099.834414                       # average ReadExReq mshr miss latency
system.l2.ReadExReq_avg_mshr_miss_latency::total 90099.834414                       # average ReadExReq mshr miss latency
system.l2.ReadCleanReq_avg_mshr_miss_latency::cpu.inst 85156.872510                       # average ReadCleanReq mshr miss latency
system.l2.ReadCleanReq_avg_mshr_miss_latency::total 85156.872510                       # average ReadCleanReq mshr miss latency
system.l2.ReadSharedReq_avg_mshr_miss_latency::cpu.data 95532.594768                       # average ReadSharedReq mshr miss latency
system.l2.ReadSharedReq_avg_mshr_miss_latency::total 95532.594768                       # average ReadSharedReq mshr miss latency
system.l2.demand_avg_mshr_miss_latency::cpu.inst 85156.872510                       # average overall mshr miss latency
system.l2.demand_avg_mshr_miss_latency::cpu.data 92819.472739                       # average overall mshr miss latency
system.l2.demand_avg_mshr_miss_latency::total 92807.599889                       # average overall mshr miss latency
system.l2.overall_avg_mshr_miss_latency::cpu.inst 85156.872510                       # average overall mshr miss latency
system.l2.overall_avg_mshr_miss_latency::cpu.data 92819.472739                       # average overall mshr miss latency
system.l2.overall_avg_mshr_miss_latency::total 92807.599889                       # average overall mshr miss latency
system.membus.snoop_filter.tot_requests       1279074                       # Total number of requests made to the snoop filter.
system.membus.snoop_filter.hit_single_requests       631104                       # Number of requests hitting in the snoop filter with a single holder of the requested data.
system.membus.snoop_filter.hit_multi_requests            0                       # Number of requests hitting in the snoop filter with multiple (>1) holders of the requested data.
system.membus.snoop_filter.tot_snoops               0                       # Total number of snoops made to the snoop filter.
system.membus.snoop_filter.hit_single_snoops            0                       # Number of snoops hitting in the snoop filter with a single holder of the requested data.
system.membus.snoop_filter.hit_multi_snoops            0                       # Number of snoops hitting in the snoop filter with multiple (>1) holders of the requested data.
system.membus.pwrStateResidencyTicks::UNDEFINED 1071550998500                       # Cumulative time (in ticks) in various power states
system.membus.trans_dist::ReadResp             324875                       # Transaction distribution
system.membus.trans_dist::WritebackDirty       392387                       # Transaction distribution
system.membus.trans_dist::CleanEvict           238717                       # Transaction distribution
system.membus.trans_dist::ReadExReq            323095                       # Transaction distribution
system.membus.trans_dist::ReadExResp           323095                       # Transaction distribution
system.membus.trans_dist::ReadSharedReq        324875                       # Transaction distribution
system.membus.pkt_count_system.l2.mem_side::system.mem_ctrls.port      1927044                       # Packet count per connected master and slave (bytes)
system.membus.pkt_count_system.l2.mem_side::total      1927044                       # Packet count per connected master and slave (bytes)
system.membus.pkt_count::total                1927044                       # Packet count per connected master and slave (bytes)
system.membus.pkt_size_system.l2.mem_side::system.mem_ctrls.port     66582848                       # Cumulative packet size per connected master and slave (bytes)
system.membus.pkt_size_system.l2.mem_side::total     66582848                       # Cumulative packet size per connected master and slave (bytes)
system.membus.pkt_size::total                66582848                       # Cumulative packet size per connected master and slave (bytes)
system.membus.snoops                                0                       # Total snoops (count)
system.membus.snoopTraffic                          0                       # Total snoop traffic (bytes)
system.membus.snoop_fanout::samples            647970                       # Request fanout histogram
system.membus.snoop_fanout::mean                    0                       # Request fanout histogram
system.membus.snoop_fanout::stdev                   0                       # Request fanout histogram
system.membus.snoop_fanout::underflows              0      0.00%      0.00% # Request fanout histogram
system.membus.snoop_fanout::0                  647970    100.00%    100.00% # Request fanout histogram
system.membus.snoop_fanout::1                       0      0.00%    100.00% # Request fanout histogram
system.membus.snoop_fanout::overflows               0      0.00%    100.00% # Request fanout histogram
system.membus.snoop_fanout::min_value               0                       # Request fanout histogram
system.membus.snoop_fanout::max_value               0                       # Request fanout histogram
system.membus.snoop_fanout::total              647970                       # Request fanout histogram
system.membus.reqLayer2.occupancy          2856682000                       # Layer occupancy (ticks)
system.membus.reqLayer2.utilization               0.3                       # Layer utilization (%)
system.membus.respLayer1.occupancy         3507790250                       # Layer occupancy (ticks)
system.membus.respLayer1.utilization              0.3                       # Layer utilization (%)
system.tol2bus.snoop_filter.tot_requests      4934420                       # Total number of requests made to the snoop filter.
system.tol2bus.snoop_filter.hit_single_requests      2466445                       # Number of requests hitting in the snoop filter with a single holder of the requested data.
system.tol2bus.snoop_filter.hit_multi_requests            1                       # Number of requests hitting in the snoop filter with multiple (>1) holders of the requested data.
system.tol2bus.snoop_filter.tot_snoops           9718                       # Total number of snoops made to the snoop filter.
system.tol2bus.snoop_filter.hit_single_snoops         9718                       # Number of snoops hitting in the snoop filter with a single holder of the requested data.
system.tol2bus.snoop_filter.hit_multi_snoops            0                       # Number of snoops hitting in the snoop filter with multiple (>1) holders of the requested data.
system.tol2bus.pwrStateResidencyTicks::UNDEFINED 1071550998500                       # Cumulative time (in ticks) in various power states
system.tol2bus.trans_dist::ReadResp           1817500                       # Transaction distribution
system.tol2bus.trans_dist::WritebackDirty      1547009                       # Transaction distribution
system.tol2bus.trans_dist::WritebackClean          529                       # Transaction distribution
system.tol2bus.trans_dist::CleanEvict         1554983                       # Transaction distribution
system.tol2bus.trans_dist::ReadExReq           650475                       # Transaction distribution
system.tol2bus.trans_dist::ReadExResp          650475                       # Transaction distribution
system.tol2bus.trans_dist::ReadCleanReq          1035                       # Transaction distribution
system.tol2bus.trans_dist::ReadSharedReq      1816465                       # Transaction distribution
system.tol2bus.pkt_count_system.cpu.icache.mem_side::system.l2.cpu_side         2599                       # Packet count per connected master and slave (bytes)
system.tol2bus.pkt_count_system.cpu.dcache.mem_side::system.l2.cpu_side      7399796                       # Packet count per connected master and slave (bytes)
system.tol2bus.pkt_count::total               7402395                       # Packet count per connected master and slave (bytes)
system.tol2bus.pkt_size_system.cpu.icache.mem_side::system.l2.cpu_side       100096                       # Cumulative packet size per connected master and slave (bytes)
system.tol2bus.pkt_size_system.cpu.dcache.mem_side::system.l2.cpu_side    231779968                       # Cumulative packet size per connected master and slave (bytes)
system.tol2bus.pkt_size::total              231880064                       # Cumulative packet size per connected master and slave (bytes)
system.tol2bus.snoops                          636076                       # Total snoops (count)
system.tol2bus.snoopTraffic                  25112768                       # Total snoop traffic (bytes)
system.tol2bus.snoop_fanout::samples          3104051                       # Request fanout histogram
system.tol2bus.snoop_fanout::mean            0.003131                       # Request fanout histogram
system.tol2bus.snoop_fanout::stdev           0.055868                       # Request fanout histogram
system.tol2bus.snoop_fanout::underflows             0      0.00%      0.00% # Request fanout histogram
system.tol2bus.snoop_fanout::0                3094332     99.69%     99.69% # Request fanout histogram
system.tol2bus.snoop_fanout::1                   9719      0.31%    100.00% # Request fanout histogram
system.tol2bus.snoop_fanout::2                      0      0.00%    100.00% # Request fanout histogram
system.tol2bus.snoop_fanout::3                      0      0.00%    100.00% # Request fanout histogram
system.tol2bus.snoop_fanout::4                      0      0.00%    100.00% # Request fanout histogram
system.tol2bus.snoop_fanout::overflows              0      0.00%    100.00% # Request fanout histogram
system.tol2bus.snoop_fanout::min_value              0                       # Request fanout histogram
system.tol2bus.snoop_fanout::max_value              1                       # Request fanout histogram
system.tol2bus.snoop_fanout::total            3104051                       # Request fanout histogram
system.tol2bus.reqLayer0.occupancy         3622361000                       # Layer occupancy (ticks)
system.tol2bus.reqLayer0.utilization              0.3                       # Layer utilization (%)
system.tol2bus.respLayer0.occupancy           1552500                       # Layer occupancy (ticks)
system.tol2bus.respLayer0.utilization             0.0                       # Layer utilization (%)
system.tol2bus.respLayer1.occupancy        3700410000                       # Layer occupancy (ticks)
system.tol2bus.respLayer1.utilization             0.3                       # Layer utilization (%)

---------- End Simulation Statistics   ----------
