
---------- Begin Simulation Statistics ----------
sim_seconds                                  1.096165                       # Number of seconds simulated
sim_ticks                                1096165255500                       # Number of ticks simulated
final_tick                               1096165255500                       # Number of ticks from beginning of simulation (restored from checkpoints and never reset)
sim_freq                                 1000000000000                       # Frequency of simulated ticks
host_inst_rate                                 315823                       # Simulator instruction rate (inst/s)
host_op_rate                                   461386                       # Simulator op (including micro ops) rate (op/s)
host_tick_rate                              692388228                       # Simulator tick rate (ticks/s)
host_mem_usage                                 659128                       # Number of bytes of host memory used
host_seconds                                  1583.17                       # Real time elapsed on the host
sim_insts                                   500000001                       # Number of instructions simulated
sim_ops                                     730450447                       # Number of ops (including micro ops) simulated
system.voltage_domain.voltage                       1                       # Voltage in Volts
system.clk_domain.clock                          1000                       # Clock period in ticks
system.mem_ctrls.pwrStateResidencyTicks::UNDEFINED 1096165255500                       # Cumulative time (in ticks) in various power states
system.mem_ctrls.bytes_read::cpu.inst           58240                       # Number of bytes read from this memory
system.mem_ctrls.bytes_read::cpu.data        31654144                       # Number of bytes read from this memory
system.mem_ctrls.bytes_read::total           31712384                       # Number of bytes read from this memory
system.mem_ctrls.bytes_inst_read::cpu.inst        58240                       # Number of instructions bytes read from this memory
system.mem_ctrls.bytes_inst_read::total         58240                       # Number of instructions bytes read from this memory
system.mem_ctrls.bytes_written::writebacks     18010048                       # Number of bytes written to this memory
system.mem_ctrls.bytes_written::total        18010048                       # Number of bytes written to this memory
system.mem_ctrls.num_reads::cpu.inst             1820                       # Number of read requests responded to by this memory
system.mem_ctrls.num_reads::cpu.data           989192                       # Number of read requests responded to by this memory
system.mem_ctrls.num_reads::total              991012                       # Number of read requests responded to by this memory
system.mem_ctrls.num_writes::writebacks        562814                       # Number of write requests responded to by this memory
system.mem_ctrls.num_writes::total             562814                       # Number of write requests responded to by this memory
system.mem_ctrls.bw_read::cpu.inst              53131                       # Total read bandwidth from this memory (bytes/s)
system.mem_ctrls.bw_read::cpu.data           28877164                       # Total read bandwidth from this memory (bytes/s)
system.mem_ctrls.bw_read::total              28930295                       # Total read bandwidth from this memory (bytes/s)
system.mem_ctrls.bw_inst_read::cpu.inst         53131                       # Instruction read bandwidth from this memory (bytes/s)
system.mem_ctrls.bw_inst_read::total            53131                       # Instruction read bandwidth from this memory (bytes/s)
system.mem_ctrls.bw_write::writebacks        16430048                       # Write bandwidth from this memory (bytes/s)
system.mem_ctrls.bw_write::total             16430048                       # Write bandwidth from this memory (bytes/s)
system.mem_ctrls.bw_total::writebacks        16430048                       # Total bandwidth to/from this memory (bytes/s)
system.mem_ctrls.bw_total::cpu.inst             53131                       # Total bandwidth to/from this memory (bytes/s)
system.mem_ctrls.bw_total::cpu.data          28877164                       # Total bandwidth to/from this memory (bytes/s)
system.mem_ctrls.bw_total::total             45360343                       # Total bandwidth to/from this memory (bytes/s)
system.mem_ctrls.readReqs                      991012                       # Number of read requests accepted
system.mem_ctrls.writeReqs                     562814                       # Number of write requests accepted
system.mem_ctrls.readBursts                    991012                       # Number of DRAM read bursts, including those serviced by the write queue
system.mem_ctrls.writeBursts                   562814                       # Number of DRAM write bursts, including those merged in the write queue
system.mem_ctrls.bytesReadDRAM               63396032                       # Total number of bytes read from DRAM
system.mem_ctrls.bytesReadWrQ                   28736                       # Total number of bytes read from write queue
system.mem_ctrls.bytesWritten                31432640                       # Total number of bytes written to DRAM
system.mem_ctrls.bytesReadSys                31712384                       # Total read bytes from the system interface side
system.mem_ctrls.bytesWrittenSys             18010048                       # Total written bytes from the system interface side
system.mem_ctrls.servicedByWrQ                    449                       # Number of DRAM read bursts serviced by the write queue
system.mem_ctrls.mergedWrBursts                 71659                       # Number of DRAM write bursts merged with an existing one
system.mem_ctrls.neitherReadNorWriteReqs            0                       # Number of requests that are neither read nor write
system.mem_ctrls.perBankRdBursts::0             64887                       # Per bank write bursts
system.mem_ctrls.perBankRdBursts::1             62862                       # Per bank write bursts
system.mem_ctrls.perBankRdBursts::2             61558                       # Per bank write bursts
system.mem_ctrls.perBankRdBursts::3             60513                       # Per bank write bursts
system.mem_ctrls.perBankRdBursts::4             59655                       # Per bank write bursts
system.mem_ctrls.perBankRdBursts::5             60143                       # Per bank write bursts
system.mem_ctrls.perBankRdBursts::6             62420                       # Per bank write bursts
system.mem_ctrls.perBankRdBursts::7             61469                       # Per bank write bursts
system.mem_ctrls.perBankRdBursts::8             58858                       # Per bank write bursts
system.mem_ctrls.perBankRdBursts::9             58155                       # Per bank write bursts
system.mem_ctrls.perBankRdBursts::10            61601                       # Per bank write bursts
system.mem_ctrls.perBankRdBursts::11            63013                       # Per bank write bursts
system.mem_ctrls.perBankRdBursts::12            63632                       # Per bank write bursts
system.mem_ctrls.perBankRdBursts::13            63353                       # Per bank write bursts
system.mem_ctrls.perBankRdBursts::14            63924                       # Per bank write bursts
system.mem_ctrls.perBankRdBursts::15            64520                       # Per bank write bursts
system.mem_ctrls.perBankWrBursts::0             32275                       # Per bank write bursts
system.mem_ctrls.perBankWrBursts::1             31057                       # Per bank write bursts
system.mem_ctrls.perBankWrBursts::2             30345                       # Per bank write bursts
system.mem_ctrls.perBankWrBursts::3             29706                       # Per bank write bursts
system.mem_ctrls.perBankWrBursts::4             29086                       # Per bank write bursts
system.mem_ctrls.perBankWrBursts::5             28987                       # Per bank write bursts
system.mem_ctrls.perBankWrBursts::6             30145                       # Per bank write bursts
system.mem_ctrls.perBankWrBursts::7             30286                       # Per bank write bursts
system.mem_ctrls.perBankWrBursts::8             29793                       # Per bank write bursts
system.mem_ctrls.perBankWrBursts::9             29599                       # Per bank write bursts
system.mem_ctrls.perBankWrBursts::10            30734                       # Per bank write bursts
system.mem_ctrls.perBankWrBursts::11            31061                       # Per bank write bursts
system.mem_ctrls.perBankWrBursts::12            31504                       # Per bank write bursts
system.mem_ctrls.perBankWrBursts::13            31982                       # Per bank write bursts
system.mem_ctrls.perBankWrBursts::14            32311                       # Per bank write bursts
system.mem_ctrls.perBankWrBursts::15            32264                       # Per bank write bursts
system.mem_ctrls.numRdRetry                         0                       # Number of times read queue was full causing retry
system.mem_ctrls.numWrRetry                         0                       # Number of times write queue was full causing retry
system.mem_ctrls.totGap                  1096162010500                       # Total gap between requests
system.mem_ctrls.readPktSize::0                     0                       # Read request sizes (log2)
system.mem_ctrls.readPktSize::1                     0                       # Read request sizes (log2)
system.mem_ctrls.readPktSize::2                     0                       # Read request sizes (log2)
system.mem_ctrls.readPktSize::3                     0                       # Read request sizes (log2)
system.mem_ctrls.readPktSize::4                     0                       # Read request sizes (log2)
system.mem_ctrls.readPktSize::5                991012                       # Read request sizes (log2)
system.mem_ctrls.readPktSize::6                     0                       # Read request sizes (log2)
system.mem_ctrls.writePktSize::0                    0                       # Write request sizes (log2)
system.mem_ctrls.writePktSize::1                    0                       # Write request sizes (log2)
system.mem_ctrls.writePktSize::2                    0                       # Write request sizes (log2)
system.mem_ctrls.writePktSize::3                    0                       # Write request sizes (log2)
system.mem_ctrls.writePktSize::4                    0                       # Write request sizes (log2)
system.mem_ctrls.writePktSize::5               562814                       # Write request sizes (log2)
system.mem_ctrls.writePktSize::6                    0                       # Write request sizes (log2)
system.mem_ctrls.rdQLenPdf::0                  974112                       # What read queue length does an incoming req see
system.mem_ctrls.rdQLenPdf::1                    8177                       # What read queue length does an incoming req see
system.mem_ctrls.rdQLenPdf::2                    8258                       # What read queue length does an incoming req see
system.mem_ctrls.rdQLenPdf::3                      16                       # What read queue length does an incoming req see
system.mem_ctrls.rdQLenPdf::4                       0                       # What read queue length does an incoming req see
system.mem_ctrls.rdQLenPdf::5                       0                       # What read queue length does an incoming req see
system.mem_ctrls.rdQLenPdf::6                       0                       # What read queue length does an incoming req see
system.mem_ctrls.rdQLenPdf::7                       0                       # What read queue length does an incoming req see
system.mem_ctrls.rdQLenPdf::8                       0                       # What read queue length does an incoming req see
system.mem_ctrls.rdQLenPdf::9                       0                       # What read queue length does an incoming req see
system.mem_ctrls.rdQLenPdf::10                      0                       # What read queue length does an incoming req see
system.mem_ctrls.rdQLenPdf::11                      0                       # What read queue length does an incoming req see
system.mem_ctrls.rdQLenPdf::12                      0                       # What read queue length does an incoming req see
system.mem_ctrls.rdQLenPdf::13                      0                       # What read queue length does an incoming req see
system.mem_ctrls.rdQLenPdf::14                      0                       # What read queue length does an incoming req see
system.mem_ctrls.rdQLenPdf::15                      0                       # What read queue length does an incoming req see
system.mem_ctrls.rdQLenPdf::16                      0                       # What read queue length does an incoming req see
system.mem_ctrls.rdQLenPdf::17                      0                       # What read queue length does an incoming req see
system.mem_ctrls.rdQLenPdf::18                      0                       # What read queue length does an incoming req see
system.mem_ctrls.rdQLenPdf::19                      0                       # What read queue length does an incoming req see
system.mem_ctrls.rdQLenPdf::20                      0                       # What read queue length does an incoming req see
system.mem_ctrls.rdQLenPdf::21                      0                       # What read queue length does an incoming req see
system.mem_ctrls.rdQLenPdf::22                      0                       # What read queue length does an incoming req see
system.mem_ctrls.rdQLenPdf::23                      0                       # What read queue length does an incoming req see
system.mem_ctrls.rdQLenPdf::24                      0                       # What read queue length does an incoming req see
system.mem_ctrls.rdQLenPdf::25                      0                       # What read queue length does an incoming req see
system.mem_ctrls.rdQLenPdf::26                      0                       # What read queue length does an incoming req see
system.mem_ctrls.rdQLenPdf::27                      0                       # What read queue length does an incoming req see
system.mem_ctrls.rdQLenPdf::28                      0                       # What read queue length does an incoming req see
system.mem_ctrls.rdQLenPdf::29                      0                       # What read queue length does an incoming req see
system.mem_ctrls.rdQLenPdf::30                      0                       # What read queue length does an incoming req see
system.mem_ctrls.rdQLenPdf::31                      0                       # What read queue length does an incoming req see
system.mem_ctrls.wrQLenPdf::0                       1                       # What write queue length does an incoming req see
system.mem_ctrls.wrQLenPdf::1                       1                       # What write queue length does an incoming req see
system.mem_ctrls.wrQLenPdf::2                       1                       # What write queue length does an incoming req see
system.mem_ctrls.wrQLenPdf::3                       1                       # What write queue length does an incoming req see
system.mem_ctrls.wrQLenPdf::4                       1                       # What write queue length does an incoming req see
system.mem_ctrls.wrQLenPdf::5                       1                       # What write queue length does an incoming req see
system.mem_ctrls.wrQLenPdf::6                       1                       # What write queue length does an incoming req see
system.mem_ctrls.wrQLenPdf::7                       1                       # What write queue length does an incoming req see
system.mem_ctrls.wrQLenPdf::8                       1                       # What write queue length does an incoming req see
system.mem_ctrls.wrQLenPdf::9                       1                       # What write queue length does an incoming req see
system.mem_ctrls.wrQLenPdf::10                      1                       # What write queue length does an incoming req see
system.mem_ctrls.wrQLenPdf::11                      1                       # What write queue length does an incoming req see
system.mem_ctrls.wrQLenPdf::12                      1                       # What write queue length does an incoming req see
system.mem_ctrls.wrQLenPdf::13                      1                       # What write queue length does an incoming req see
system.mem_ctrls.wrQLenPdf::14                      1                       # What write queue length does an incoming req see
system.mem_ctrls.wrQLenPdf::15                  16635                       # What write queue length does an incoming req see
system.mem_ctrls.wrQLenPdf::16                  17906                       # What write queue length does an incoming req see
system.mem_ctrls.wrQLenPdf::17                  28500                       # What write queue length does an incoming req see
system.mem_ctrls.wrQLenPdf::18                  28534                       # What write queue length does an incoming req see
system.mem_ctrls.wrQLenPdf::19                  28532                       # What write queue length does an incoming req see
system.mem_ctrls.wrQLenPdf::20                  28533                       # What write queue length does an incoming req see
system.mem_ctrls.wrQLenPdf::21                  28534                       # What write queue length does an incoming req see
system.mem_ctrls.wrQLenPdf::22                  28531                       # What write queue length does an incoming req see
system.mem_ctrls.wrQLenPdf::23                  28533                       # What write queue length does an incoming req see
system.mem_ctrls.wrQLenPdf::24                  28532                       # What write queue length does an incoming req see
system.mem_ctrls.wrQLenPdf::25                  28534                       # What write queue length does an incoming req see
system.mem_ctrls.wrQLenPdf::26                  28533                       # What write queue length does an incoming req see
system.mem_ctrls.wrQLenPdf::27                  28532                       # What write queue length does an incoming req see
system.mem_ctrls.wrQLenPdf::28                  28547                       # What write queue length does an incoming req see
system.mem_ctrls.wrQLenPdf::29                  28605                       # What write queue length does an incoming req see
system.mem_ctrls.wrQLenPdf::30                  28553                       # What write queue length does an incoming req see
system.mem_ctrls.wrQLenPdf::31                  28532                       # What write queue length does an incoming req see
system.mem_ctrls.wrQLenPdf::32                  28534                       # What write queue length does an incoming req see
system.mem_ctrls.wrQLenPdf::33                      0                       # What write queue length does an incoming req see
system.mem_ctrls.wrQLenPdf::34                      0                       # What write queue length does an incoming req see
system.mem_ctrls.wrQLenPdf::35                      0                       # What write queue length does an incoming req see
system.mem_ctrls.wrQLenPdf::36                      0                       # What write queue length does an incoming req see
system.mem_ctrls.wrQLenPdf::37                      0                       # What write queue length does an incoming req see
system.mem_ctrls.wrQLenPdf::38                      0                       # What write queue length does an incoming req see
system.mem_ctrls.wrQLenPdf::39                      0                       # What write queue length does an incoming req see
system.mem_ctrls.wrQLenPdf::40                      0                       # What write queue length does an incoming req see
system.mem_ctrls.wrQLenPdf::41                      0                       # What write queue length does an incoming req see
system.mem_ctrls.wrQLenPdf::42                      0                       # What write queue length does an incoming req see
system.mem_ctrls.wrQLenPdf::43                      0                       # What write queue length does an incoming req see
system.mem_ctrls.wrQLenPdf::44                      0                       # What write queue length does an incoming req see
system.mem_ctrls.wrQLenPdf::45                      0                       # What write queue length does an incoming req see
system.mem_ctrls.wrQLenPdf::46                      0                       # What write queue length does an incoming req see
system.mem_ctrls.wrQLenPdf::47                      0                       # What write queue length does an incoming req see
system.mem_ctrls.wrQLenPdf::48                      0                       # What write queue length does an incoming req see
system.mem_ctrls.wrQLenPdf::49                      0                       # What write queue length does an incoming req see
system.mem_ctrls.wrQLenPdf::50                      0                       # What write queue length does an incoming req see
system.mem_ctrls.wrQLenPdf::51                      0                       # What write queue length does an incoming req see
system.mem_ctrls.wrQLenPdf::52                      0                       # What write queue length does an incoming req see
system.mem_ctrls.wrQLenPdf::53                      0                       # What write queue length does an incoming req see
system.mem_ctrls.wrQLenPdf::54                      0                       # What write queue length does an incoming req see
system.mem_ctrls.wrQLenPdf::55                      0                       # What write queue length does an incoming req see
system.mem_ctrls.wrQLenPdf::56                      0                       # What write queue length does an incoming req see
system.mem_ctrls.wrQLenPdf::57                      0                       # What write queue length does an incoming req see
system.mem_ctrls.wrQLenPdf::58                      0                       # What write queue length does an incoming req see
system.mem_ctrls.wrQLenPdf::59                      0                       # What write queue length does an incoming req see
system.mem_ctrls.wrQLenPdf::60                      0                       # What write queue length does an incoming req see
system.mem_ctrls.wrQLenPdf::61                      0                       # What write queue length does an incoming req see
system.mem_ctrls.wrQLenPdf::62                      0                       # What write queue length does an incoming req see
system.mem_ctrls.wrQLenPdf::63                      0                       # What write queue length does an incoming req see
system.mem_ctrls.bytesPerActivate::samples       737236                       # Bytes accessed per row activation
system.mem_ctrls.bytesPerActivate::mean    128.627208                       # Bytes accessed per row activation
system.mem_ctrls.bytesPerActivate::gmean    92.200130                       # Bytes accessed per row activation
system.mem_ctrls.bytesPerActivate::stdev   165.090407                       # Bytes accessed per row activation
system.mem_ctrls.bytesPerActivate::0-127       518108     70.28%     70.28% # Bytes accessed per row activation
system.mem_ctrls.bytesPerActivate::128-255       138538     18.79%     89.07% # Bytes accessed per row activation
system.mem_ctrls.bytesPerActivate::256-383        29874      4.05%     93.12% # Bytes accessed per row activation
system.mem_ctrls.bytesPerActivate::384-511        12530      1.70%     94.82% # Bytes accessed per row activation
system.mem_ctrls.bytesPerActivate::512-639        17275      2.34%     97.16% # Bytes accessed per row activation
system.mem_ctrls.bytesPerActivate::640-767         5010      0.68%     97.84% # Bytes accessed per row activation
system.mem_ctrls.bytesPerActivate::768-895         2023      0.27%     98.12% # Bytes accessed per row activation
system.mem_ctrls.bytesPerActivate::896-1023         1165      0.16%     98.28% # Bytes accessed per row activation
system.mem_ctrls.bytesPerActivate::1024-1151        12713      1.72%    100.00% # Bytes accessed per row activation
system.mem_ctrls.bytesPerActivate::total       737236                       # Bytes accessed per row activation
system.mem_ctrls.rdPerTurnAround::samples        28530                       # Reads before turning the bus around for writes
system.mem_ctrls.rdPerTurnAround::mean      34.239047                       # Reads before turning the bus around for writes
system.mem_ctrls.rdPerTurnAround::gmean     26.554599                       # Reads before turning the bus around for writes
system.mem_ctrls.rdPerTurnAround::stdev    301.489152                       # Reads before turning the bus around for writes
system.mem_ctrls.rdPerTurnAround::0-2047        28520     99.96%     99.96% # Reads before turning the bus around for writes
system.mem_ctrls.rdPerTurnAround::2048-4095            4      0.01%     99.98% # Reads before turning the bus around for writes
system.mem_ctrls.rdPerTurnAround::4096-6143            2      0.01%     99.99% # Reads before turning the bus around for writes
system.mem_ctrls.rdPerTurnAround::6144-8191            1      0.00%     99.99% # Reads before turning the bus around for writes
system.mem_ctrls.rdPerTurnAround::8192-10239            1      0.00%     99.99% # Reads before turning the bus around for writes
system.mem_ctrls.rdPerTurnAround::10240-12287            1      0.00%    100.00% # Reads before turning the bus around for writes
system.mem_ctrls.rdPerTurnAround::47104-49151            1      0.00%    100.00% # Reads before turning the bus around for writes
system.mem_ctrls.rdPerTurnAround::total         28530                       # Reads before turning the bus around for writes
system.mem_ctrls.wrPerTurnAround::samples        28530                       # Writes before turning the bus around for reads
system.mem_ctrls.wrPerTurnAround::mean      17.214686                       # Writes before turning the bus around for reads
system.mem_ctrls.wrPerTurnAround::gmean     17.187512                       # Writes before turning the bus around for reads
system.mem_ctrls.wrPerTurnAround::stdev      0.959337                       # Writes before turning the bus around for reads
system.mem_ctrls.wrPerTurnAround::16            10617     37.21%     37.21% # Writes before turning the bus around for reads
system.mem_ctrls.wrPerTurnAround::17             1277      4.48%     41.69% # Writes before turning the bus around for reads
system.mem_ctrls.wrPerTurnAround::18            16530     57.94%     99.63% # Writes before turning the bus around for reads
system.mem_ctrls.wrPerTurnAround::19              106      0.37%    100.00% # Writes before turning the bus around for reads
system.mem_ctrls.wrPerTurnAround::total         28530                       # Writes before turning the bus around for reads
system.mem_ctrls.totQLat                  26403570750                       # Total ticks spent queuing
system.mem_ctrls.totMemAccLat             44976627000                       # Total ticks spent from burst creation until serviced by the DRAM
system.mem_ctrls.totBusLat                 4952815000                       # Total ticks spent in databus transfers
system.mem_ctrls.avgQLat                     26655.12                       # Average queueing delay per DRAM burst
system.mem_ctrls.avgBusLat                    5000.00                       # Average bus latency per DRAM burst
system.mem_ctrls.avgMemAccLat                45405.12                       # Average memory access latency per DRAM burst
system.mem_ctrls.avgRdBW                        57.83                       # Average DRAM read bandwidth in MiByte/s
system.mem_ctrls.avgWrBW                        28.68                       # Average achieved write bandwidth in MiByte/s
system.mem_ctrls.avgRdBWSys                     28.93                       # Average system read bandwidth in MiByte/s
system.mem_ctrls.avgWrBWSys                     16.43                       # Average system write bandwidth in MiByte/s
system.mem_ctrls.peakBW                      12800.00                       # Theoretical peak bandwidth in MiByte/s
system.mem_ctrls.busUtil                         0.68                       # Data bus utilization in percentage
system.mem_ctrls.busUtilRead                     0.45                       # Data bus utilization in percentage for reads
system.mem_ctrls.busUtilWrite                    0.22                       # Data bus utilization in percentage for writes
system.mem_ctrls.avgRdQLen                       1.00                       # Average read queue length when enqueuing
system.mem_ctrls.avgWrQLen                      23.87                       # Average write queue length when enqueuing
system.mem_ctrls.readRowHits                   531798                       # Number of row buffer hits during reads
system.mem_ctrls.writeRowHits                  212663                       # Number of row buffer hits during writes
system.mem_ctrls.readRowHitRate                 53.69                       # Row buffer hit rate for reads
system.mem_ctrls.writeRowHitRate                43.30                       # Row buffer hit rate for writes
system.mem_ctrls.avgGap                     705459.95                       # Average gap between requests
system.mem_ctrls.pageHitRate                    50.24                       # Row buffer hit rate, read and write combined
system.mem_ctrls_0.actEnergy               2607863580                       # Energy for activate commands per rank (pJ)
system.mem_ctrls_0.preEnergy               1386108570                       # Energy for precharge commands per rank (pJ)
system.mem_ctrls_0.readEnergy              3523639980                       # Energy for read commands per rank (pJ)
system.mem_ctrls_0.writeEnergy             1262650140                       # Energy for write commands per rank (pJ)
system.mem_ctrls_0.refreshEnergy         42790622160.000008                       # Energy for refresh commands per rank (pJ)
system.mem_ctrls_0.actBackEnergy          24788649060                       # Energy for active background per rank (pJ)
system.mem_ctrls_0.preBackEnergy           1635025920                       # Energy for precharge background per rank (pJ)
system.mem_ctrls_0.actPowerDownEnergy    144834550710                       # Energy for active power-down per rank (pJ)
system.mem_ctrls_0.prePowerDownEnergy     43668158880                       # Energy for precharge power-down per rank (pJ)
system.mem_ctrls_0.selfRefreshEnergy     149462379810                       # Energy for self refresh per rank (pJ)
system.mem_ctrls_0.totalEnergy           415970015670                       # Total energy per rank (pJ)
system.mem_ctrls_0.averagePower            379.477466                       # Core power per rank (mW)
system.mem_ctrls_0.totalIdleTime         1037521117500                       # Total Idle time Per DRAM Rank
system.mem_ctrls_0.memoryStateTime::IDLE   2358713750                       # Time in different power states
system.mem_ctrls_0.memoryStateTime::REF   18145004000                       # Time in different power states
system.mem_ctrls_0.memoryStateTime::SREF 606184399500                       # Time in different power states
system.mem_ctrls_0.memoryStateTime::PRE_PDN 113719271000                       # Time in different power states
system.mem_ctrls_0.memoryStateTime::ACT   38137749250                       # Time in different power states
system.mem_ctrls_0.memoryStateTime::ACT_PDN 317620118000                       # Time in different power states
system.mem_ctrls_1.actEnergy               2656008600                       # Energy for activate commands per rank (pJ)
system.mem_ctrls_1.preEnergy               1411702050                       # Energy for precharge commands per rank (pJ)
system.mem_ctrls_1.readEnergy              3548979840                       # Energy for read commands per rank (pJ)
system.mem_ctrls_1.writeEnergy             1301074560                       # Energy for write commands per rank (pJ)
system.mem_ctrls_1.refreshEnergy         42579800640.000008                       # Energy for refresh commands per rank (pJ)
system.mem_ctrls_1.actBackEnergy          24920836620                       # Energy for active background per rank (pJ)
system.mem_ctrls_1.preBackEnergy           1619905920                       # Energy for precharge background per rank (pJ)
system.mem_ctrls_1.actPowerDownEnergy    143623139400                       # Energy for active power-down per rank (pJ)
system.mem_ctrls_1.prePowerDownEnergy     43562878080                       # Energy for precharge power-down per rank (pJ)
system.mem_ctrls_1.selfRefreshEnergy     150105874095                       # Energy for self refresh per rank (pJ)
system.mem_ctrls_1.totalEnergy           415340414385                       # Total energy per rank (pJ)
system.mem_ctrls_1.averagePower            378.903098                       # Core power per rank (mW)
system.mem_ctrls_1.totalIdleTime         1037233899500                       # Total Idle time Per DRAM Rank
system.mem_ctrls_1.memoryStateTime::IDLE   2311956750                       # Time in different power states
system.mem_ctrls_1.memoryStateTime::REF   18055920000                       # Time in different power states
system.mem_ctrls_1.memoryStateTime::SREF 608865031000                       # Time in different power states
system.mem_ctrls_1.memoryStateTime::PRE_PDN 113443887000                       # Time in different power states
system.mem_ctrls_1.memoryStateTime::ACT   38525264250                       # Time in different power states
system.mem_ctrls_1.memoryStateTime::ACT_PDN 314963196500                       # Time in different power states
system.pwrStateResidencyTicks::UNDEFINED 1096165255500                       # Cumulative time (in ticks) in various power states
system.cpu_voltage_domain.voltage                   1                       # Voltage in Volts
system.cpu_clk_domain.clock                       500                       # Clock period in ticks
system.cpu.dtb.walker.pwrStateResidencyTicks::UNDEFINED 1096165255500                       # Cumulative time (in ticks) in various power states
system.cpu.apic_clk_domain.clock                 8000                       # Clock period in ticks
system.cpu.interrupts.pwrStateResidencyTicks::UNDEFINED 1096165255500                       # Cumulative time (in ticks) in various power states
system.cpu.itb.walker.pwrStateResidencyTicks::UNDEFINED 1096165255500                       # Cumulative time (in ticks) in various power states
system.cpu.workload.num_syscalls                   86                       # Number of system calls
system.cpu.pwrStateResidencyTicks::ON    1096165255500                       # Cumulative time (in ticks) in various power states
system.cpu.numCycles                       2192330511                       # number of cpu cycles simulated
system.cpu.numWorkItemsStarted                      0                       # number of work items this cpu started
system.cpu.numWorkItemsCompleted                    0                       # number of work items this cpu completed
system.cpu.committedInsts                   500000001                       # Number of instructions committed
system.cpu.committedOps                     730450447                       # Number of ops (including micro ops) committed
system.cpu.num_int_alu_accesses             729688906                       # Number of integer alu accesses
system.cpu.num_fp_alu_accesses                    663                       # Number of float alu accesses
system.cpu.num_func_calls                     1453961                       # number of times a function call or return occured
system.cpu.num_conditional_control_insts     31770496                       # number of instructions that are conditional controls
system.cpu.num_int_insts                    729688906                       # number of integer instructions
system.cpu.num_fp_insts                           663                       # number of float instructions
system.cpu.num_int_register_reads          1698743411                       # number of times the integer registers were read
system.cpu.num_int_register_writes          621892950                       # number of times the integer registers were written
system.cpu.num_fp_register_reads                 1009                       # number of times the floating registers were read
system.cpu.num_fp_register_writes                 429                       # number of times the floating registers were written
system.cpu.num_cc_register_reads            180840559                       # number of times the CC registers were read
system.cpu.num_cc_register_writes           276245121                       # number of times the CC registers were written
system.cpu.num_mem_refs                     295985461                       # number of memory refs
system.cpu.num_load_insts                   225946751                       # Number of load instructions
system.cpu.num_store_insts                   70038710                       # Number of store instructions
system.cpu.num_idle_cycles                          0                       # Number of idle cycles
system.cpu.num_busy_cycles                 2192330511                       # Number of busy cycles
system.cpu.not_idle_fraction                        1                       # Percentage of non-idle cycles
system.cpu.idle_fraction                            0                       # Percentage of idle cycles
system.cpu.Branches                          37843296                       # Number of branches fetched
system.cpu.op_class::No_OpClass                 94740      0.01%      0.01% # Class of executed instruction
system.cpu.op_class::IntAlu                 434349067     59.46%     59.48% # Class of executed instruction
system.cpu.op_class::IntMult                    20662      0.00%     59.48% # Class of executed instruction
system.cpu.op_class::IntDiv                       119      0.00%     59.48% # Class of executed instruction
system.cpu.op_class::FloatAdd                     398      0.00%     59.48% # Class of executed instruction
system.cpu.op_class::FloatCmp                       0      0.00%     59.48% # Class of executed instruction
system.cpu.op_class::FloatCvt                       0      0.00%     59.48% # Class of executed instruction
system.cpu.op_class::FloatMult                      0      0.00%     59.48% # Class of executed instruction
system.cpu.op_class::FloatDiv                       0      0.00%     59.48% # Class of executed instruction
system.cpu.op_class::FloatSqrt                      0      0.00%     59.48% # Class of executed instruction
system.cpu.op_class::SimdAdd                        0      0.00%     59.48% # Class of executed instruction
system.cpu.op_class::SimdAddAcc                     0      0.00%     59.48% # Class of executed instruction
system.cpu.op_class::SimdAlu                        0      0.00%     59.48% # Class of executed instruction
system.cpu.op_class::SimdCmp                        0      0.00%     59.48% # Class of executed instruction
system.cpu.op_class::SimdCvt                        0      0.00%     59.48% # Class of executed instruction
system.cpu.op_class::SimdMisc                       0      0.00%     59.48% # Class of executed instruction
system.cpu.op_class::SimdMult                       0      0.00%     59.48% # Class of executed instruction
system.cpu.op_class::SimdMultAcc                    0      0.00%     59.48% # Class of executed instruction
system.cpu.op_class::SimdShift                      0      0.00%     59.48% # Class of executed instruction
system.cpu.op_class::SimdShiftAcc                   0      0.00%     59.48% # Class of executed instruction
system.cpu.op_class::SimdSqrt                       0      0.00%     59.48% # Class of executed instruction
system.cpu.op_class::SimdFloatAdd                   0      0.00%     59.48% # Class of executed instruction
system.cpu.op_class::SimdFloatAlu                   0      0.00%     59.48% # Class of executed instruction
system.cpu.op_class::SimdFloatCmp                   0      0.00%     59.48% # Class of executed instruction
system.cpu.op_class::SimdFloatCvt                   0      0.00%     59.48% # Class of executed instruction
system.cpu.op_class::SimdFloatDiv                   0      0.00%     59.48% # Class of executed instruction
system.cpu.op_class::SimdFloatMisc                  0      0.00%     59.48% # Class of executed instruction
system.cpu.op_class::SimdFloatMult                  0      0.00%     59.48% # Class of executed instruction
system.cpu.op_class::SimdFloatMultAcc               0      0.00%     59.48% # Class of executed instruction
system.cpu.op_class::SimdFloatSqrt                  0      0.00%     59.48% # Class of executed instruction
system.cpu.op_class::MemRead                225946751     30.93%     90.41% # Class of executed instruction
system.cpu.op_class::MemWrite                70038710      9.59%    100.00% # Class of executed instruction
system.cpu.op_class::IprAccess                      0      0.00%    100.00% # Class of executed instruction
system.cpu.op_class::InstPrefetch                   0      0.00%    100.00% # Class of executed instruction
system.cpu.op_class::total                  730450447                       # Class of executed instruction
system.cpu.dcache.tags.pwrStateResidencyTicks::UNDEFINED 1096165255500                       # Cumulative time (in ticks) in various power states
system.cpu.dcache.tags.replacements           2422595                       # number of replacements
system.cpu.dcache.tags.tagsinuse          4083.075284                       # Cycle average of tags in use
system.cpu.dcache.tags.total_refs           293558783                       # Total number of references to valid blocks.
system.cpu.dcache.tags.sampled_refs           2426691                       # Sample count of references to valid blocks.
system.cpu.dcache.tags.avg_refs            120.970813                       # Average number of references to valid blocks.
system.cpu.dcache.tags.warmup_cycle        3964786500                       # Cycle when the warmup percentage was hit.
system.cpu.dcache.tags.occ_blocks::cpu.data  4083.075284                       # Average occupied blocks per requestor
system.cpu.dcache.tags.occ_percent::cpu.data     0.996845                       # Average percentage of cache occupancy
system.cpu.dcache.tags.occ_percent::total     0.996845                       # Average percentage of cache occupancy
system.cpu.dcache.tags.occ_task_id_blocks::1024         4096                       # Occupied blocks per task id
system.cpu.dcache.tags.age_task_id_blocks_1024::0            1                       # Occupied blocks per task id
system.cpu.dcache.tags.age_task_id_blocks_1024::1            3                       # Occupied blocks per task id
system.cpu.dcache.tags.age_task_id_blocks_1024::2           32                       # Occupied blocks per task id
system.cpu.dcache.tags.age_task_id_blocks_1024::3         2848                       # Occupied blocks per task id
system.cpu.dcache.tags.age_task_id_blocks_1024::4         1212                       # Occupied blocks per task id
system.cpu.dcache.tags.occ_task_id_percent::1024            1                       # Percentage of cache occupancy per task id
system.cpu.dcache.tags.tag_accesses         594397639                       # Number of tag accesses
system.cpu.dcache.tags.data_accesses        594397639                       # Number of data accesses
system.cpu.dcache.pwrStateResidencyTicks::UNDEFINED 1096165255500                       # Cumulative time (in ticks) in various power states
system.cpu.dcache.ReadReq_hits::cpu.data    224231623                       # number of ReadReq hits
system.cpu.dcache.ReadReq_hits::total       224231623                       # number of ReadReq hits
system.cpu.dcache.WriteReq_hits::cpu.data     69327160                       # number of WriteReq hits
system.cpu.dcache.WriteReq_hits::total       69327160                       # number of WriteReq hits
system.cpu.dcache.demand_hits::cpu.data     293558783                       # number of demand (read+write) hits
system.cpu.dcache.demand_hits::total        293558783                       # number of demand (read+write) hits
system.cpu.dcache.overall_hits::cpu.data    293558783                       # number of overall hits
system.cpu.dcache.overall_hits::total       293558783                       # number of overall hits
system.cpu.dcache.ReadReq_misses::cpu.data      1698755                       # number of ReadReq misses
system.cpu.dcache.ReadReq_misses::total       1698755                       # number of ReadReq misses
system.cpu.dcache.WriteReq_misses::cpu.data       711552                       # number of WriteReq misses
system.cpu.dcache.WriteReq_misses::total       711552                       # number of WriteReq misses
system.cpu.dcache.SoftPFReq_misses::cpu.data        16384                       # number of SoftPFReq misses
system.cpu.dcache.SoftPFReq_misses::total        16384                       # number of SoftPFReq misses
system.cpu.dcache.demand_misses::cpu.data      2410307                       # number of demand (read+write) misses
system.cpu.dcache.demand_misses::total        2410307                       # number of demand (read+write) misses
system.cpu.dcache.overall_misses::cpu.data      2426691                       # number of overall misses
system.cpu.dcache.overall_misses::total       2426691                       # number of overall misses
system.cpu.dcache.ReadReq_miss_latency::cpu.data  66190281500                       # number of ReadReq miss cycles
system.cpu.dcache.ReadReq_miss_latency::total  66190281500                       # number of ReadReq miss cycles
system.cpu.dcache.WriteReq_miss_latency::cpu.data  48835939500                       # number of WriteReq miss cycles
system.cpu.dcache.WriteReq_miss_latency::total  48835939500                       # number of WriteReq miss cycles
system.cpu.dcache.demand_miss_latency::cpu.data 115026221000                       # number of demand (read+write) miss cycles
system.cpu.dcache.demand_miss_latency::total 115026221000                       # number of demand (read+write) miss cycles
system.cpu.dcache.overall_miss_latency::cpu.data 115026221000                       # number of overall miss cycles
system.cpu.dcache.overall_miss_latency::total 115026221000                       # number of overall miss cycles
system.cpu.dcache.ReadReq_accesses::cpu.data    225930378                       # number of ReadReq accesses(hits+misses)
system.cpu.dcache.ReadReq_accesses::total    225930378                       # number of ReadReq accesses(hits+misses)
system.cpu.dcache.WriteReq_accesses::cpu.data     70038712                       # number of WriteReq accesses(hits+misses)
system.cpu.dcache.WriteReq_accesses::total     70038712                       # number of WriteReq accesses(hits+misses)
system.cpu.dcache.SoftPFReq_accesses::cpu.data        16384                       # number of SoftPFReq accesses(hits+misses)
system.cpu.dcache.SoftPFReq_accesses::total        16384                       # number of SoftPFReq accesses(hits+misses)
system.cpu.dcache.demand_accesses::cpu.data    295969090                       # number of demand (read+write) accesses
system.cpu.dcache.demand_accesses::total    295969090                       # number of demand (read+write) accesses
system.cpu.dcache.overall_accesses::cpu.data    295985474                       # number of overall (read+write) accesses
system.cpu.dcache.overall_accesses::total    295985474                       # number of overall (read+write) accesses
system.cpu.dcache.ReadReq_miss_rate::cpu.data     0.007519                       # miss rate for ReadReq accesses
system.cpu.dcache.ReadReq_miss_rate::total     0.007519                       # miss rate for ReadReq accesses
system.cpu.dcache.WriteReq_miss_rate::cpu.data     0.010159                       # miss rate for WriteReq accesses
system.cpu.dcache.WriteReq_miss_rate::total     0.010159                       # miss rate for WriteReq accesses
system.cpu.dcache.SoftPFReq_miss_rate::cpu.data            1                       # miss rate for SoftPFReq accesses
system.cpu.dcache.SoftPFReq_miss_rate::total            1                       # miss rate for SoftPFReq accesses
system.cpu.dcache.demand_miss_rate::cpu.data     0.008144                       # miss rate for demand accesses
system.cpu.dcache.demand_miss_rate::total     0.008144                       # miss rate for demand accesses
system.cpu.dcache.overall_miss_rate::cpu.data     0.008199                       # miss rate for overall accesses
system.cpu.dcache.overall_miss_rate::total     0.008199                       # miss rate for overall accesses
system.cpu.dcache.ReadReq_avg_miss_latency::cpu.data 38963.995102                       # average ReadReq miss latency
system.cpu.dcache.ReadReq_avg_miss_latency::total 38963.995102                       # average ReadReq miss latency
system.cpu.dcache.WriteReq_avg_miss_latency::cpu.data 68632.987470                       # average WriteReq miss latency
system.cpu.dcache.WriteReq_avg_miss_latency::total 68632.987470                       # average WriteReq miss latency
system.cpu.dcache.demand_avg_miss_latency::cpu.data 47722.643215                       # average overall miss latency
system.cpu.dcache.demand_avg_miss_latency::total 47722.643215                       # average overall miss latency
system.cpu.dcache.overall_avg_miss_latency::cpu.data 47400.439941                       # average overall miss latency
system.cpu.dcache.overall_avg_miss_latency::total 47400.439941                       # average overall miss latency
system.cpu.dcache.blocked_cycles::no_mshrs         3486                       # number of cycles access was blocked
system.cpu.dcache.blocked_cycles::no_targets            0                       # number of cycles access was blocked
system.cpu.dcache.blocked::no_mshrs                18                       # number of cycles access was blocked
system.cpu.dcache.blocked::no_targets               0                       # number of cycles access was blocked
system.cpu.dcache.avg_blocked_cycles::no_mshrs   193.666667                       # average number of cycles each access was blocked
system.cpu.dcache.avg_blocked_cycles::no_targets          nan                       # average number of cycles each access was blocked
system.cpu.dcache.writebacks::writebacks      1126892                       # number of writebacks
system.cpu.dcache.writebacks::total           1126892                       # number of writebacks
system.cpu.dcache.ReadReq_mshr_misses::cpu.data      1698755                       # number of ReadReq MSHR misses
system.cpu.dcache.ReadReq_mshr_misses::total      1698755                       # number of ReadReq MSHR misses
system.cpu.dcache.WriteReq_mshr_misses::cpu.data       711552                       # number of WriteReq MSHR misses
system.cpu.dcache.WriteReq_mshr_misses::total       711552                       # number of WriteReq MSHR misses
system.cpu.dcache.SoftPFReq_mshr_misses::cpu.data        16384                       # number of SoftPFReq MSHR misses
system.cpu.dcache.SoftPFReq_mshr_misses::total        16384                       # number of SoftPFReq MSHR misses
system.cpu.dcache.demand_mshr_misses::cpu.data      2410307                       # number of demand (read+write) MSHR misses
system.cpu.dcache.demand_mshr_misses::total      2410307                       # number of demand (read+write) MSHR misses
system.cpu.dcache.overall_mshr_misses::cpu.data      2426691                       # number of overall MSHR misses
system.cpu.dcache.overall_mshr_misses::total      2426691                       # number of overall MSHR misses
system.cpu.dcache.ReadReq_mshr_miss_latency::cpu.data  64491526500                       # number of ReadReq MSHR miss cycles
system.cpu.dcache.ReadReq_mshr_miss_latency::total  64491526500                       # number of ReadReq MSHR miss cycles
system.cpu.dcache.WriteReq_mshr_miss_latency::cpu.data  48124387500                       # number of WriteReq MSHR miss cycles
system.cpu.dcache.WriteReq_mshr_miss_latency::total  48124387500                       # number of WriteReq MSHR miss cycles
system.cpu.dcache.SoftPFReq_mshr_miss_latency::cpu.data   1369034000                       # number of SoftPFReq MSHR miss cycles
system.cpu.dcache.SoftPFReq_mshr_miss_latency::total   1369034000                       # number of SoftPFReq MSHR miss cycles
system.cpu.dcache.demand_mshr_miss_latency::cpu.data 112615914000                       # number of demand (read+write) MSHR miss cycles
system.cpu.dcache.demand_mshr_miss_latency::total 112615914000                       # number of demand (read+write) MSHR miss cycles
system.cpu.dcache.overall_mshr_miss_latency::cpu.data 113984948000                       # number of overall MSHR miss cycles
system.cpu.dcache.overall_mshr_miss_latency::total 113984948000                       # number of overall MSHR miss cycles
system.cpu.dcache.ReadReq_mshr_miss_rate::cpu.data     0.007519                       # mshr miss rate for ReadReq accesses
system.cpu.dcache.ReadReq_mshr_miss_rate::total     0.007519                       # mshr miss rate for ReadReq accesses
system.cpu.dcache.WriteReq_mshr_miss_rate::cpu.data     0.010159                       # mshr miss rate for WriteReq accesses
system.cpu.dcache.WriteReq_mshr_miss_rate::total     0.010159                       # mshr miss rate for WriteReq accesses
system.cpu.dcache.SoftPFReq_mshr_miss_rate::cpu.data            1                       # mshr miss rate for SoftPFReq accesses
system.cpu.dcache.SoftPFReq_mshr_miss_rate::total            1                       # mshr miss rate for SoftPFReq accesses
system.cpu.dcache.demand_mshr_miss_rate::cpu.data     0.008144                       # mshr miss rate for demand accesses
system.cpu.dcache.demand_mshr_miss_rate::total     0.008144                       # mshr miss rate for demand accesses
system.cpu.dcache.overall_mshr_miss_rate::cpu.data     0.008199                       # mshr miss rate for overall accesses
system.cpu.dcache.overall_mshr_miss_rate::total     0.008199                       # mshr miss rate for overall accesses
system.cpu.dcache.ReadReq_avg_mshr_miss_latency::cpu.data 37963.995102                       # average ReadReq mshr miss latency
system.cpu.dcache.ReadReq_avg_mshr_miss_latency::total 37963.995102                       # average ReadReq mshr miss latency
system.cpu.dcache.WriteReq_avg_mshr_miss_latency::cpu.data 67632.987470                       # average WriteReq mshr miss latency
system.cpu.dcache.WriteReq_avg_mshr_miss_latency::total 67632.987470                       # average WriteReq mshr miss latency
system.cpu.dcache.SoftPFReq_avg_mshr_miss_latency::cpu.data 83559.204102                       # average SoftPFReq mshr miss latency
system.cpu.dcache.SoftPFReq_avg_mshr_miss_latency::total 83559.204102                       # average SoftPFReq mshr miss latency
system.cpu.dcache.demand_avg_mshr_miss_latency::cpu.data 46722.643215                       # average overall mshr miss latency
system.cpu.dcache.demand_avg_mshr_miss_latency::total 46722.643215                       # average overall mshr miss latency
system.cpu.dcache.overall_avg_mshr_miss_latency::cpu.data 46971.348227                       # average overall mshr miss latency
system.cpu.dcache.overall_avg_mshr_miss_latency::total 46971.348227                       # average overall mshr miss latency
system.cpu.dtb_walker_cache.tags.pwrStateResidencyTicks::UNDEFINED 1096165255500                       # Cumulative time (in ticks) in various power states
system.cpu.dtb_walker_cache.tags.replacements            0                       # number of replacements
system.cpu.dtb_walker_cache.tags.tagsinuse            0                       # Cycle average of tags in use
system.cpu.dtb_walker_cache.tags.total_refs            0                       # Total number of references to valid blocks.
system.cpu.dtb_walker_cache.tags.sampled_refs            0                       # Sample count of references to valid blocks.
system.cpu.dtb_walker_cache.tags.avg_refs          nan                       # Average number of references to valid blocks.
system.cpu.dtb_walker_cache.tags.warmup_cycle            0                       # Cycle when the warmup percentage was hit.
system.cpu.dtb_walker_cache.tags.tag_accesses            0                       # Number of tag accesses
system.cpu.dtb_walker_cache.tags.data_accesses            0                       # Number of data accesses
system.cpu.dtb_walker_cache.pwrStateResidencyTicks::UNDEFINED 1096165255500                       # Cumulative time (in ticks) in various power states
system.cpu.dtb_walker_cache.blocked_cycles::no_mshrs            0                       # number of cycles access was blocked
system.cpu.dtb_walker_cache.blocked_cycles::no_targets            0                       # number of cycles access was blocked
system.cpu.dtb_walker_cache.blocked::no_mshrs            0                       # number of cycles access was blocked
system.cpu.dtb_walker_cache.blocked::no_targets            0                       # number of cycles access was blocked
system.cpu.dtb_walker_cache.avg_blocked_cycles::no_mshrs          nan                       # average number of cycles each access was blocked
system.cpu.dtb_walker_cache.avg_blocked_cycles::no_targets          nan                       # average number of cycles each access was blocked
system.cpu.icache.tags.pwrStateResidencyTicks::UNDEFINED 1096165255500                       # Cumulative time (in ticks) in various power states
system.cpu.icache.tags.replacements               858                       # number of replacements
system.cpu.icache.tags.tagsinuse           859.872349                       # Cycle average of tags in use
system.cpu.icache.tags.total_refs           687396000                       # Total number of references to valid blocks.
system.cpu.icache.tags.sampled_refs              1862                       # Sample count of references to valid blocks.
system.cpu.icache.tags.avg_refs          369170.784103                       # Average number of references to valid blocks.
system.cpu.icache.tags.warmup_cycle                 0                       # Cycle when the warmup percentage was hit.
system.cpu.icache.tags.occ_blocks::cpu.inst   859.872349                       # Average occupied blocks per requestor
system.cpu.icache.tags.occ_percent::cpu.inst     0.839719                       # Average percentage of cache occupancy
system.cpu.icache.tags.occ_percent::total     0.839719                       # Average percentage of cache occupancy
system.cpu.icache.tags.occ_task_id_blocks::1024         1004                       # Occupied blocks per task id
system.cpu.icache.tags.age_task_id_blocks_1024::1           14                       # Occupied blocks per task id
system.cpu.icache.tags.age_task_id_blocks_1024::3           50                       # Occupied blocks per task id
system.cpu.icache.tags.age_task_id_blocks_1024::4          940                       # Occupied blocks per task id
system.cpu.icache.tags.occ_task_id_percent::1024     0.980469                       # Percentage of cache occupancy per task id
system.cpu.icache.tags.tag_accesses        1374797586                       # Number of tag accesses
system.cpu.icache.tags.data_accesses       1374797586                       # Number of data accesses
system.cpu.icache.pwrStateResidencyTicks::UNDEFINED 1096165255500                       # Cumulative time (in ticks) in various power states
system.cpu.icache.ReadReq_hits::cpu.inst    687396000                       # number of ReadReq hits
system.cpu.icache.ReadReq_hits::total       687396000                       # number of ReadReq hits
system.cpu.icache.demand_hits::cpu.inst     687396000                       # number of demand (read+write) hits
system.cpu.icache.demand_hits::total        687396000                       # number of demand (read+write) hits
system.cpu.icache.overall_hits::cpu.inst    687396000                       # number of overall hits
system.cpu.icache.overall_hits::total       687396000                       # number of overall hits
system.cpu.icache.ReadReq_misses::cpu.inst         1862                       # number of ReadReq misses
system.cpu.icache.ReadReq_misses::total          1862                       # number of ReadReq misses
system.cpu.icache.demand_misses::cpu.inst         1862                       # number of demand (read+write) misses
system.cpu.icache.demand_misses::total           1862                       # number of demand (read+write) misses
system.cpu.icache.overall_misses::cpu.inst         1862                       # number of overall misses
system.cpu.icache.overall_misses::total          1862                       # number of overall misses
system.cpu.icache.ReadReq_miss_latency::cpu.inst    166217000                       # number of ReadReq miss cycles
system.cpu.icache.ReadReq_miss_latency::total    166217000                       # number of ReadReq miss cycles
system.cpu.icache.demand_miss_latency::cpu.inst    166217000                       # number of demand (read+write) miss cycles
system.cpu.icache.demand_miss_latency::total    166217000                       # number of demand (read+write) miss cycles
system.cpu.icache.overall_miss_latency::cpu.inst    166217000                       # number of overall miss cycles
system.cpu.icache.overall_miss_latency::total    166217000                       # number of overall miss cycles
system.cpu.icache.ReadReq_accesses::cpu.inst    687397862                       # number of ReadReq accesses(hits+misses)
system.cpu.icache.ReadReq_accesses::total    687397862                       # number of ReadReq accesses(hits+misses)
system.cpu.icache.demand_accesses::cpu.inst    687397862                       # number of demand (read+write) accesses
system.cpu.icache.demand_accesses::total    687397862                       # number of demand (read+write) accesses
system.cpu.icache.overall_accesses::cpu.inst    687397862                       # number of overall (read+write) accesses
system.cpu.icache.overall_accesses::total    687397862                       # number of overall (read+write) accesses
system.cpu.icache.ReadReq_miss_rate::cpu.inst     0.000003                       # miss rate for ReadReq accesses
system.cpu.icache.ReadReq_miss_rate::total     0.000003                       # miss rate for ReadReq accesses
system.cpu.icache.demand_miss_rate::cpu.inst     0.000003                       # miss rate for demand accesses
system.cpu.icache.demand_miss_rate::total     0.000003                       # miss rate for demand accesses
system.cpu.icache.overall_miss_rate::cpu.inst     0.000003                       # miss rate for overall accesses
system.cpu.icache.overall_miss_rate::total     0.000003                       # miss rate for overall accesses
system.cpu.icache.ReadReq_avg_miss_latency::cpu.inst 89267.991407                       # average ReadReq miss latency
system.cpu.icache.ReadReq_avg_miss_latency::total 89267.991407                       # average ReadReq miss latency
system.cpu.icache.demand_avg_miss_latency::cpu.inst 89267.991407                       # average overall miss latency
system.cpu.icache.demand_avg_miss_latency::total 89267.991407                       # average overall miss latency
system.cpu.icache.overall_avg_miss_latency::cpu.inst 89267.991407                       # average overall miss latency
system.cpu.icache.overall_avg_miss_latency::total 89267.991407                       # average overall miss latency
system.cpu.icache.blocked_cycles::no_mshrs            0                       # number of cycles access was blocked
system.cpu.icache.blocked_cycles::no_targets            0                       # number of cycles access was blocked
system.cpu.icache.blocked::no_mshrs                 0                       # number of cycles access was blocked
system.cpu.icache.blocked::no_targets               0                       # number of cycles access was blocked
system.cpu.icache.avg_blocked_cycles::no_mshrs          nan                       # average number of cycles each access was blocked
system.cpu.icache.avg_blocked_cycles::no_targets          nan                       # average number of cycles each access was blocked
system.cpu.icache.writebacks::writebacks          858                       # number of writebacks
system.cpu.icache.writebacks::total               858                       # number of writebacks
system.cpu.icache.ReadReq_mshr_misses::cpu.inst         1862                       # number of ReadReq MSHR misses
system.cpu.icache.ReadReq_mshr_misses::total         1862                       # number of ReadReq MSHR misses
system.cpu.icache.demand_mshr_misses::cpu.inst         1862                       # number of demand (read+write) MSHR misses
system.cpu.icache.demand_mshr_misses::total         1862                       # number of demand (read+write) MSHR misses
system.cpu.icache.overall_mshr_misses::cpu.inst         1862                       # number of overall MSHR misses
system.cpu.icache.overall_mshr_misses::total         1862                       # number of overall MSHR misses
system.cpu.icache.ReadReq_mshr_miss_latency::cpu.inst    164355000                       # number of ReadReq MSHR miss cycles
system.cpu.icache.ReadReq_mshr_miss_latency::total    164355000                       # number of ReadReq MSHR miss cycles
system.cpu.icache.demand_mshr_miss_latency::cpu.inst    164355000                       # number of demand (read+write) MSHR miss cycles
system.cpu.icache.demand_mshr_miss_latency::total    164355000                       # number of demand (read+write) MSHR miss cycles
system.cpu.icache.overall_mshr_miss_latency::cpu.inst    164355000                       # number of overall MSHR miss cycles
system.cpu.icache.overall_mshr_miss_latency::total    164355000                       # number of overall MSHR miss cycles
system.cpu.icache.ReadReq_mshr_miss_rate::cpu.inst     0.000003                       # mshr miss rate for ReadReq accesses
system.cpu.icache.ReadReq_mshr_miss_rate::total     0.000003                       # mshr miss rate for ReadReq accesses
system.cpu.icache.demand_mshr_miss_rate::cpu.inst     0.000003                       # mshr miss rate for demand accesses
system.cpu.icache.demand_mshr_miss_rate::total     0.000003                       # mshr miss rate for demand accesses
system.cpu.icache.overall_mshr_miss_rate::cpu.inst     0.000003                       # mshr miss rate for overall accesses
system.cpu.icache.overall_mshr_miss_rate::total     0.000003                       # mshr miss rate for overall accesses
system.cpu.icache.ReadReq_avg_mshr_miss_latency::cpu.inst 88267.991407                       # average ReadReq mshr miss latency
system.cpu.icache.ReadReq_avg_mshr_miss_latency::total 88267.991407                       # average ReadReq mshr miss latency
system.cpu.icache.demand_avg_mshr_miss_latency::cpu.inst 88267.991407                       # average overall mshr miss latency
system.cpu.icache.demand_avg_mshr_miss_latency::total 88267.991407                       # average overall mshr miss latency
system.cpu.icache.overall_avg_mshr_miss_latency::cpu.inst 88267.991407                       # average overall mshr miss latency
system.cpu.icache.overall_avg_mshr_miss_latency::total 88267.991407                       # average overall mshr miss latency
system.cpu.itb_walker_cache.tags.pwrStateResidencyTicks::UNDEFINED 1096165255500                       # Cumulative time (in ticks) in various power states
system.cpu.itb_walker_cache.tags.replacements            0                       # number of replacements
system.cpu.itb_walker_cache.tags.tagsinuse            0                       # Cycle average of tags in use
system.cpu.itb_walker_cache.tags.total_refs            0                       # Total number of references to valid blocks.
system.cpu.itb_walker_cache.tags.sampled_refs            0                       # Sample count of references to valid blocks.
system.cpu.itb_walker_cache.tags.avg_refs          nan                       # Average number of references to valid blocks.
system.cpu.itb_walker_cache.tags.warmup_cycle            0                       # Cycle when the warmup percentage was hit.
system.cpu.itb_walker_cache.tags.tag_accesses            0                       # Number of tag accesses
system.cpu.itb_walker_cache.tags.data_accesses            0                       # Number of data accesses
system.cpu.itb_walker_cache.pwrStateResidencyTicks::UNDEFINED 1096165255500                       # Cumulative time (in ticks) in various power states
system.cpu.itb_walker_cache.blocked_cycles::no_mshrs            0                       # number of cycles access was blocked
system.cpu.itb_walker_cache.blocked_cycles::no_targets            0                       # number of cycles access was blocked
system.cpu.itb_walker_cache.blocked::no_mshrs            0                       # number of cycles access was blocked
system.cpu.itb_walker_cache.blocked::no_targets            0                       # number of cycles access was blocked
system.cpu.itb_walker_cache.avg_blocked_cycles::no_mshrs          nan                       # average number of cycles each access was blocked
system.cpu.itb_walker_cache.avg_blocked_cycles::no_targets          nan                       # average number of cycles each access was blocked
system.l2.tags.pwrStateResidencyTicks::UNDEFINED 1096165255500                       # Cumulative time (in ticks) in various power states
system.l2.tags.replacements                    979872                       # number of replacements
system.l2.tags.tagsinuse                 32637.623097                       # Cycle average of tags in use
system.l2.tags.total_refs                     3824423                       # Total number of references to valid blocks.
system.l2.tags.sampled_refs                   1012640                       # Sample count of references to valid blocks.
system.l2.tags.avg_refs                      3.776686                       # Average number of references to valid blocks.
system.l2.tags.warmup_cycle                5518903000                       # Cycle when the warmup percentage was hit.
system.l2.tags.occ_blocks::writebacks      471.676333                       # Average occupied blocks per requestor
system.l2.tags.occ_blocks::cpu.inst         34.155838                       # Average occupied blocks per requestor
system.l2.tags.occ_blocks::cpu.data      32131.790926                       # Average occupied blocks per requestor
system.l2.tags.occ_percent::writebacks       0.014394                       # Average percentage of cache occupancy
system.l2.tags.occ_percent::cpu.inst         0.001042                       # Average percentage of cache occupancy
system.l2.tags.occ_percent::cpu.data         0.980584                       # Average percentage of cache occupancy
system.l2.tags.occ_percent::total            0.996021                       # Average percentage of cache occupancy
system.l2.tags.occ_task_id_blocks::1024         32768                       # Occupied blocks per task id
system.l2.tags.age_task_id_blocks_1024::0            1                       # Occupied blocks per task id
system.l2.tags.age_task_id_blocks_1024::1           30                       # Occupied blocks per task id
system.l2.tags.age_task_id_blocks_1024::2           32                       # Occupied blocks per task id
system.l2.tags.age_task_id_blocks_1024::3          487                       # Occupied blocks per task id
system.l2.tags.age_task_id_blocks_1024::4        32218                       # Occupied blocks per task id
system.l2.tags.occ_task_id_percent::1024            1                       # Percentage of cache occupancy per task id
system.l2.tags.tag_accesses                  10716650                       # Number of tag accesses
system.l2.tags.data_accesses                 10716650                       # Number of data accesses
system.l2.pwrStateResidencyTicks::UNDEFINED 1096165255500                       # Cumulative time (in ticks) in various power states
system.l2.WritebackDirty_hits::writebacks      1126892                       # number of WritebackDirty hits
system.l2.WritebackDirty_hits::total          1126892                       # number of WritebackDirty hits
system.l2.WritebackClean_hits::writebacks          858                       # number of WritebackClean hits
system.l2.WritebackClean_hits::total              858                       # number of WritebackClean hits
system.l2.ReadExReq_hits::cpu.data             236733                       # number of ReadExReq hits
system.l2.ReadExReq_hits::total                236733                       # number of ReadExReq hits
system.l2.ReadCleanReq_hits::cpu.inst              42                       # number of ReadCleanReq hits
system.l2.ReadCleanReq_hits::total                 42                       # number of ReadCleanReq hits
system.l2.ReadSharedReq_hits::cpu.data        1200766                       # number of ReadSharedReq hits
system.l2.ReadSharedReq_hits::total           1200766                       # number of ReadSharedReq hits
system.l2.demand_hits::cpu.inst                    42                       # number of demand (read+write) hits
system.l2.demand_hits::cpu.data               1437499                       # number of demand (read+write) hits
system.l2.demand_hits::total                  1437541                       # number of demand (read+write) hits
system.l2.overall_hits::cpu.inst                   42                       # number of overall hits
system.l2.overall_hits::cpu.data              1437499                       # number of overall hits
system.l2.overall_hits::total                 1437541                       # number of overall hits
system.l2.ReadExReq_misses::cpu.data           474819                       # number of ReadExReq misses
system.l2.ReadExReq_misses::total              474819                       # number of ReadExReq misses
system.l2.ReadCleanReq_misses::cpu.inst          1820                       # number of ReadCleanReq misses
system.l2.ReadCleanReq_misses::total             1820                       # number of ReadCleanReq misses
system.l2.ReadSharedReq_misses::cpu.data       514373                       # number of ReadSharedReq misses
system.l2.ReadSharedReq_misses::total          514373                       # number of ReadSharedReq misses
system.l2.demand_misses::cpu.inst                1820                       # number of demand (read+write) misses
system.l2.demand_misses::cpu.data              989192                       # number of demand (read+write) misses
system.l2.demand_misses::total                 991012                       # number of demand (read+write) misses
system.l2.overall_misses::cpu.inst               1820                       # number of overall misses
system.l2.overall_misses::cpu.data             989192                       # number of overall misses
system.l2.overall_misses::total                991012                       # number of overall misses
system.l2.ReadExReq_miss_latency::cpu.data  44571363000                       # number of ReadExReq miss cycles
system.l2.ReadExReq_miss_latency::total   44571363000                       # number of ReadExReq miss cycles
system.l2.ReadCleanReq_miss_latency::cpu.inst    161120000                       # number of ReadCleanReq miss cycles
system.l2.ReadCleanReq_miss_latency::total    161120000                       # number of ReadCleanReq miss cycles
system.l2.ReadSharedReq_miss_latency::cpu.data  50679809000                       # number of ReadSharedReq miss cycles
system.l2.ReadSharedReq_miss_latency::total  50679809000                       # number of ReadSharedReq miss cycles
system.l2.demand_miss_latency::cpu.inst     161120000                       # number of demand (read+write) miss cycles
system.l2.demand_miss_latency::cpu.data   95251172000                       # number of demand (read+write) miss cycles
system.l2.demand_miss_latency::total      95412292000                       # number of demand (read+write) miss cycles
system.l2.overall_miss_latency::cpu.inst    161120000                       # number of overall miss cycles
system.l2.overall_miss_latency::cpu.data  95251172000                       # number of overall miss cycles
system.l2.overall_miss_latency::total     95412292000                       # number of overall miss cycles
system.l2.WritebackDirty_accesses::writebacks      1126892                       # number of WritebackDirty accesses(hits+misses)
system.l2.WritebackDirty_accesses::total      1126892                       # number of WritebackDirty accesses(hits+misses)
system.l2.WritebackClean_accesses::writebacks          858                       # number of WritebackClean accesses(hits+misses)
system.l2.WritebackClean_accesses::total          858                       # number of WritebackClean accesses(hits+misses)
system.l2.ReadExReq_accesses::cpu.data         711552                       # number of ReadExReq accesses(hits+misses)
system.l2.ReadExReq_accesses::total            711552                       # number of ReadExReq accesses(hits+misses)
system.l2.ReadCleanReq_accesses::cpu.inst         1862                       # number of ReadCleanReq accesses(hits+misses)
system.l2.ReadCleanReq_accesses::total           1862                       # number of ReadCleanReq accesses(hits+misses)
system.l2.ReadSharedReq_accesses::cpu.data      1715139                       # number of ReadSharedReq accesses(hits+misses)
system.l2.ReadSharedReq_accesses::total       1715139                       # number of ReadSharedReq accesses(hits+misses)
system.l2.demand_accesses::cpu.inst              1862                       # number of demand (read+write) accesses
system.l2.demand_accesses::cpu.data           2426691                       # number of demand (read+write) accesses
system.l2.demand_accesses::total              2428553                       # number of demand (read+write) accesses
system.l2.overall_accesses::cpu.inst             1862                       # number of overall (read+write) accesses
system.l2.overall_accesses::cpu.data          2426691                       # number of overall (read+write) accesses
system.l2.overall_accesses::total             2428553                       # number of overall (read+write) accesses
system.l2.ReadExReq_miss_rate::cpu.data      0.667300                       # miss rate for ReadExReq accesses
system.l2.ReadExReq_miss_rate::total         0.667300                       # miss rate for ReadExReq accesses
system.l2.ReadCleanReq_miss_rate::cpu.inst     0.977444                       # miss rate for ReadCleanReq accesses
system.l2.ReadCleanReq_miss_rate::total      0.977444                       # miss rate for ReadCleanReq accesses
system.l2.ReadSharedReq_miss_rate::cpu.data     0.299902                       # miss rate for ReadSharedReq accesses
system.l2.ReadSharedReq_miss_rate::total     0.299902                       # miss rate for ReadSharedReq accesses
system.l2.demand_miss_rate::cpu.inst         0.977444                       # miss rate for demand accesses
system.l2.demand_miss_rate::cpu.data         0.407630                       # miss rate for demand accesses
system.l2.demand_miss_rate::total            0.408067                       # miss rate for demand accesses
system.l2.overall_miss_rate::cpu.inst        0.977444                       # miss rate for overall accesses
system.l2.overall_miss_rate::cpu.data        0.407630                       # miss rate for overall accesses
system.l2.overall_miss_rate::total           0.408067                       # miss rate for overall accesses
system.l2.ReadExReq_avg_miss_latency::cpu.data 93870.217915                       # average ReadExReq miss latency
system.l2.ReadExReq_avg_miss_latency::total 93870.217915                       # average ReadExReq miss latency
system.l2.ReadCleanReq_avg_miss_latency::cpu.inst 88527.472527                       # average ReadCleanReq miss latency
system.l2.ReadCleanReq_avg_miss_latency::total 88527.472527                       # average ReadCleanReq miss latency
system.l2.ReadSharedReq_avg_miss_latency::cpu.data 98527.350775                       # average ReadSharedReq miss latency
system.l2.ReadSharedReq_avg_miss_latency::total 98527.350775                       # average ReadSharedReq miss latency
system.l2.demand_avg_miss_latency::cpu.inst 88527.472527                       # average overall miss latency
system.l2.demand_avg_miss_latency::cpu.data 96291.894799                       # average overall miss latency
system.l2.demand_avg_miss_latency::total 96277.635387                       # average overall miss latency
system.l2.overall_avg_miss_latency::cpu.inst 88527.472527                       # average overall miss latency
system.l2.overall_avg_miss_latency::cpu.data 96291.894799                       # average overall miss latency
system.l2.overall_avg_miss_latency::total 96277.635387                       # average overall miss latency
system.l2.blocked_cycles::no_mshrs                  0                       # number of cycles access was blocked
system.l2.blocked_cycles::no_targets                0                       # number of cycles access was blocked
system.l2.blocked::no_mshrs                         0                       # number of cycles access was blocked
system.l2.blocked::no_targets                       0                       # number of cycles access was blocked
system.l2.avg_blocked_cycles::no_mshrs            nan                       # average number of cycles each access was blocked
system.l2.avg_blocked_cycles::no_targets          nan                       # average number of cycles each access was blocked
system.l2.writebacks::writebacks               562814                       # number of writebacks
system.l2.writebacks::total                    562814                       # number of writebacks
system.l2.CleanEvict_mshr_misses::writebacks        14942                       # number of CleanEvict MSHR misses
system.l2.CleanEvict_mshr_misses::total         14942                       # number of CleanEvict MSHR misses
system.l2.ReadExReq_mshr_misses::cpu.data       474819                       # number of ReadExReq MSHR misses
system.l2.ReadExReq_mshr_misses::total         474819                       # number of ReadExReq MSHR misses
system.l2.ReadCleanReq_mshr_misses::cpu.inst         1820                       # number of ReadCleanReq MSHR misses
system.l2.ReadCleanReq_mshr_misses::total         1820                       # number of ReadCleanReq MSHR misses
system.l2.ReadSharedReq_mshr_misses::cpu.data       514373                       # number of ReadSharedReq MSHR misses
system.l2.ReadSharedReq_mshr_misses::total       514373                       # number of ReadSharedReq MSHR misses
system.l2.demand_mshr_misses::cpu.inst           1820                       # number of demand (read+write) MSHR misses
system.l2.demand_mshr_misses::cpu.data         989192                       # number of demand (read+write) MSHR misses
system.l2.demand_mshr_misses::total            991012                       # number of demand (read+write) MSHR misses
system.l2.overall_mshr_misses::cpu.inst          1820                       # number of overall MSHR misses
system.l2.overall_mshr_misses::cpu.data        989192                       # number of overall MSHR misses
system.l2.overall_mshr_misses::total           991012                       # number of overall MSHR misses
system.l2.ReadExReq_mshr_miss_latency::cpu.data  39823173000                       # number of ReadExReq MSHR miss cycles
system.l2.ReadExReq_mshr_miss_latency::total  39823173000                       # number of ReadExReq MSHR miss cycles
system.l2.ReadCleanReq_mshr_miss_latency::cpu.inst    142920000                       # number of ReadCleanReq MSHR miss cycles
system.l2.ReadCleanReq_mshr_miss_latency::total    142920000                       # number of ReadCleanReq MSHR miss cycles
system.l2.ReadSharedReq_mshr_miss_latency::cpu.data  45536079000                       # number of ReadSharedReq MSHR miss cycles
system.l2.ReadSharedReq_mshr_miss_latency::total  45536079000                       # number of ReadSharedReq MSHR miss cycles
system.l2.demand_mshr_miss_latency::cpu.inst    142920000                       # number of demand (read+write) MSHR miss cycles
system.l2.demand_mshr_miss_latency::cpu.data  85359252000                       # number of demand (read+write) MSHR miss cycles
system.l2.demand_mshr_miss_latency::total  85502172000                       # number of demand (read+write) MSHR miss cycles
system.l2.overall_mshr_miss_latency::cpu.inst    142920000                       # number of overall MSHR miss cycles
system.l2.overall_mshr_miss_latency::cpu.data  85359252000                       # number of overall MSHR miss cycles
system.l2.overall_mshr_miss_latency::total  85502172000                       # number of overall MSHR miss cycles
system.l2.CleanEvict_mshr_miss_rate::writebacks          inf                       # mshr miss rate for CleanEvict accesses
system.l2.CleanEvict_mshr_miss_rate::total          inf                       # mshr miss rate for CleanEvict accesses
system.l2.ReadExReq_mshr_miss_rate::cpu.data     0.667300                       # mshr miss rate for ReadExReq accesses
system.l2.ReadExReq_mshr_miss_rate::total     0.667300                       # mshr miss rate for ReadExReq accesses
system.l2.ReadCleanReq_mshr_miss_rate::cpu.inst     0.977444                       # mshr miss rate for ReadCleanReq accesses
system.l2.ReadCleanReq_mshr_miss_rate::total     0.977444                       # mshr miss rate for ReadCleanReq accesses
system.l2.ReadSharedReq_mshr_miss_rate::cpu.data     0.299902                       # mshr miss rate for ReadSharedReq accesses
system.l2.ReadSharedReq_mshr_miss_rate::total     0.299902                       # mshr miss rate for ReadSharedReq accesses
system.l2.demand_mshr_miss_rate::cpu.inst     0.977444                       # mshr miss rate for demand accesses
system.l2.demand_mshr_miss_rate::cpu.data     0.407630                       # mshr miss rate for demand accesses
system.l2.demand_mshr_miss_rate::total       0.408067                       # mshr miss rate for demand accesses
system.l2.overall_mshr_miss_rate::cpu.inst     0.977444                       # mshr miss rate for overall accesses
system.l2.overall_mshr_miss_rate::cpu.data     0.407630                       # mshr miss rate for overall accesses
system.l2.overall_mshr_miss_rate::total      0.408067                       # mshr miss rate for overall accesses
system.l2.ReadExReq_avg_mshr_miss_latency::cpu.data 83870.217915                       # average ReadExReq mshr miss latency
system.l2.ReadExReq_avg_mshr_miss_latency::total 83870.217915                       # average ReadExReq mshr miss latency
system.l2.ReadCleanReq_avg_mshr_miss_latency::cpu.inst 78527.472527                       # average ReadCleanReq mshr miss latency
system.l2.ReadCleanReq_avg_mshr_miss_latency::total 78527.472527                       # average ReadCleanReq mshr miss latency
system.l2.ReadSharedReq_avg_mshr_miss_latency::cpu.data 88527.350775                       # average ReadSharedReq mshr miss latency
system.l2.ReadSharedReq_avg_mshr_miss_latency::total 88527.350775                       # average ReadSharedReq mshr miss latency
system.l2.demand_avg_mshr_miss_latency::cpu.inst 78527.472527                       # average overall mshr miss latency
system.l2.demand_avg_mshr_miss_latency::cpu.data 86291.894799                       # average overall mshr miss latency
system.l2.demand_avg_mshr_miss_latency::total 86277.635387                       # average overall mshr miss latency
system.l2.overall_avg_mshr_miss_latency::cpu.inst 78527.472527                       # average overall mshr miss latency
system.l2.overall_avg_mshr_miss_latency::cpu.data 86291.894799                       # average overall mshr miss latency
system.l2.overall_avg_mshr_miss_latency::total 86277.635387                       # average overall mshr miss latency
system.membus.snoop_filter.tot_requests       1948225                       # Total number of requests made to the snoop filter.
system.membus.snoop_filter.hit_single_requests       957213                       # Number of requests hitting in the snoop filter with a single holder of the requested data.
system.membus.snoop_filter.hit_multi_requests            0                       # Number of requests hitting in the snoop filter with multiple (>1) holders of the requested data.
system.membus.snoop_filter.tot_snoops               0                       # Total number of snoops made to the snoop filter.
system.membus.snoop_filter.hit_single_snoops            0                       # Number of snoops hitting in the snoop filter with a single holder of the requested data.
system.membus.snoop_filter.hit_multi_snoops            0                       # Number of snoops hitting in the snoop filter with multiple (>1) holders of the requested data.
system.membus.pwrStateResidencyTicks::UNDEFINED 1096165255500                       # Cumulative time (in ticks) in various power states
system.membus.trans_dist::ReadResp             516193                       # Transaction distribution
system.membus.trans_dist::WritebackDirty       562814                       # Transaction distribution
system.membus.trans_dist::CleanEvict           394399                       # Transaction distribution
system.membus.trans_dist::ReadExReq            474819                       # Transaction distribution
system.membus.trans_dist::ReadExResp           474819                       # Transaction distribution
system.membus.trans_dist::ReadSharedReq        516193                       # Transaction distribution
system.membus.pkt_count_system.l2.mem_side::system.mem_ctrls.port      2939237                       # Packet count per connected master and slave (bytes)
system.membus.pkt_count_system.l2.mem_side::total      2939237                       # Packet count per connected master and slave (bytes)
system.membus.pkt_count::total                2939237                       # Packet count per connected master and slave (bytes)
system.membus.pkt_size_system.l2.mem_side::system.mem_ctrls.port     49722432                       # Cumulative packet size per connected master and slave (bytes)
system.membus.pkt_size_system.l2.mem_side::total     49722432                       # Cumulative packet size per connected master and slave (bytes)
system.membus.pkt_size::total                49722432                       # Cumulative packet size per connected master and slave (bytes)
system.membus.snoops                                0                       # Total snoops (count)
system.membus.snoopTraffic                          0                       # Total snoop traffic (bytes)
system.membus.snoop_fanout::samples            991012                       # Request fanout histogram
system.membus.snoop_fanout::mean                    0                       # Request fanout histogram
system.membus.snoop_fanout::stdev                   0                       # Request fanout histogram
system.membus.snoop_fanout::underflows              0      0.00%      0.00% # Request fanout histogram
system.membus.snoop_fanout::0                  991012    100.00%    100.00% # Request fanout histogram
system.membus.snoop_fanout::1                       0      0.00%    100.00% # Request fanout histogram
system.membus.snoop_fanout::overflows               0      0.00%    100.00% # Request fanout histogram
system.membus.snoop_fanout::min_value               0                       # Request fanout histogram
system.membus.snoop_fanout::max_value               0                       # Request fanout histogram
system.membus.snoop_fanout::total              991012                       # Request fanout histogram
system.membus.reqLayer2.occupancy          3073863000                       # Layer occupancy (ticks)
system.membus.reqLayer2.utilization               0.3                       # Layer utilization (%)
system.membus.respLayer1.occupancy         3367058000                       # Layer occupancy (ticks)
system.membus.respLayer1.utilization              0.3                       # Layer utilization (%)
system.tol2bus.snoop_filter.tot_requests      4852006                       # Total number of requests made to the snoop filter.
system.tol2bus.snoop_filter.hit_single_requests      2423453                       # Number of requests hitting in the snoop filter with a single holder of the requested data.
system.tol2bus.snoop_filter.hit_multi_requests            1                       # Number of requests hitting in the snoop filter with multiple (>1) holders of the requested data.
system.tol2bus.snoop_filter.tot_snoops          37601                       # Total number of snoops made to the snoop filter.
system.tol2bus.snoop_filter.hit_single_snoops        37601                       # Number of snoops hitting in the snoop filter with a single holder of the requested data.
system.tol2bus.snoop_filter.hit_multi_snoops            0                       # Number of snoops hitting in the snoop filter with multiple (>1) holders of the requested data.
system.tol2bus.pwrStateResidencyTicks::UNDEFINED 1096165255500                       # Cumulative time (in ticks) in various power states
system.tol2bus.trans_dist::ReadResp           1717001                       # Transaction distribution
system.tol2bus.trans_dist::WritebackDirty      1689706                       # Transaction distribution
system.tol2bus.trans_dist::WritebackClean          858                       # Transaction distribution
system.tol2bus.trans_dist::CleanEvict         1712761                       # Transaction distribution
system.tol2bus.trans_dist::ReadExReq           711552                       # Transaction distribution
system.tol2bus.trans_dist::ReadExResp          711552                       # Transaction distribution
system.tol2bus.trans_dist::ReadCleanReq          1862                       # Transaction distribution
system.tol2bus.trans_dist::ReadSharedReq      1715139                       # Transaction distribution
system.tol2bus.pkt_count_system.cpu.icache.mem_side::system.l2.cpu_side         4582                       # Packet count per connected master and slave (bytes)
system.tol2bus.pkt_count_system.cpu.dcache.mem_side::system.l2.cpu_side      7275977                       # Packet count per connected master and slave (bytes)
system.tol2bus.pkt_count::total               7280559                       # Packet count per connected master and slave (bytes)
system.tol2bus.pkt_size_system.cpu.icache.mem_side::system.l2.cpu_side        87040                       # Cumulative packet size per connected master and slave (bytes)
system.tol2bus.pkt_size_system.cpu.dcache.mem_side::system.l2.cpu_side    113714656                       # Cumulative packet size per connected master and slave (bytes)
system.tol2bus.pkt_size::total              113801696                       # Cumulative packet size per connected master and slave (bytes)
system.tol2bus.snoops                          979872                       # Total snoops (count)
system.tol2bus.snoopTraffic                  18010048                       # Total snoop traffic (bytes)
system.tol2bus.snoop_fanout::samples          3408425                       # Request fanout histogram
system.tol2bus.snoop_fanout::mean            0.011032                       # Request fanout histogram
system.tol2bus.snoop_fanout::stdev           0.104453                       # Request fanout histogram
system.tol2bus.snoop_fanout::underflows             0      0.00%      0.00% # Request fanout histogram
system.tol2bus.snoop_fanout::0                3370823     98.90%     98.90% # Request fanout histogram
system.tol2bus.snoop_fanout::1                  37602      1.10%    100.00% # Request fanout histogram
system.tol2bus.snoop_fanout::2                      0      0.00%    100.00% # Request fanout histogram
system.tol2bus.snoop_fanout::3                      0      0.00%    100.00% # Request fanout histogram
system.tol2bus.snoop_fanout::4                      0      0.00%    100.00% # Request fanout histogram
system.tol2bus.snoop_fanout::overflows              0      0.00%    100.00% # Request fanout histogram
system.tol2bus.snoop_fanout::min_value              0                       # Request fanout histogram
system.tol2bus.snoop_fanout::max_value              1                       # Request fanout histogram
system.tol2bus.snoop_fanout::total            3408425                       # Request fanout histogram
system.tol2bus.reqLayer0.occupancy         2989878000                       # Layer occupancy (ticks)
system.tol2bus.reqLayer0.utilization              0.3                       # Layer utilization (%)
system.tol2bus.respLayer0.occupancy           1862000                       # Layer occupancy (ticks)
system.tol2bus.respLayer0.utilization             0.0                       # Layer utilization (%)
system.tol2bus.respLayer1.occupancy        2426691000                       # Layer occupancy (ticks)
system.tol2bus.respLayer1.utilization             0.2                       # Layer utilization (%)

---------- End Simulation Statistics   ----------
