
---------- Begin Simulation Statistics ----------
sim_seconds                                  1.107009                       # Number of seconds simulated
sim_ticks                                1107008699500                       # Number of ticks simulated
final_tick                               1107008699500                       # Number of ticks from beginning of simulation (restored from checkpoints and never reset)
sim_freq                                 1000000000000                       # Frequency of simulated ticks
host_inst_rate                                 380578                       # Simulator instruction rate (inst/s)
host_op_rate                                   555986                       # Simulator op (including micro ops) rate (op/s)
host_tick_rate                              842605278                       # Simulator tick rate (ticks/s)
host_mem_usage                                 659904                       # Number of bytes of host memory used
host_seconds                                  1313.79                       # Real time elapsed on the host
sim_insts                                   500000001                       # Number of instructions simulated
sim_ops                                     730450447                       # Number of ops (including micro ops) simulated
system.voltage_domain.voltage                       1                       # Voltage in Volts
system.clk_domain.clock                          1000                       # Clock period in ticks
system.mem_ctrls.pwrStateResidencyTicks::UNDEFINED 1107008699500                       # Cumulative time (in ticks) in various power states
system.mem_ctrls.bytes_read::cpu.inst           58272                       # Number of bytes read from this memory
system.mem_ctrls.bytes_read::cpu.data        36067296                       # Number of bytes read from this memory
system.mem_ctrls.bytes_read::total           36125568                       # Number of bytes read from this memory
system.mem_ctrls.bytes_inst_read::cpu.inst        58272                       # Number of instructions bytes read from this memory
system.mem_ctrls.bytes_inst_read::total         58272                       # Number of instructions bytes read from this memory
system.mem_ctrls.bytes_written::writebacks     17860192                       # Number of bytes written to this memory
system.mem_ctrls.bytes_written::total        17860192                       # Number of bytes written to this memory
system.mem_ctrls.num_reads::cpu.inst             1821                       # Number of read requests responded to by this memory
system.mem_ctrls.num_reads::cpu.data          1127103                       # Number of read requests responded to by this memory
system.mem_ctrls.num_reads::total             1128924                       # Number of read requests responded to by this memory
system.mem_ctrls.num_writes::writebacks        558131                       # Number of write requests responded to by this memory
system.mem_ctrls.num_writes::total             558131                       # Number of write requests responded to by this memory
system.mem_ctrls.bw_read::cpu.inst              52639                       # Total read bandwidth from this memory (bytes/s)
system.mem_ctrls.bw_read::cpu.data           32580860                       # Total read bandwidth from this memory (bytes/s)
system.mem_ctrls.bw_read::total              32633500                       # Total read bandwidth from this memory (bytes/s)
system.mem_ctrls.bw_inst_read::cpu.inst         52639                       # Instruction read bandwidth from this memory (bytes/s)
system.mem_ctrls.bw_inst_read::total            52639                       # Instruction read bandwidth from this memory (bytes/s)
system.mem_ctrls.bw_write::writebacks        16133741                       # Write bandwidth from this memory (bytes/s)
system.mem_ctrls.bw_write::total             16133741                       # Write bandwidth from this memory (bytes/s)
system.mem_ctrls.bw_total::writebacks        16133741                       # Total bandwidth to/from this memory (bytes/s)
system.mem_ctrls.bw_total::cpu.inst             52639                       # Total bandwidth to/from this memory (bytes/s)
system.mem_ctrls.bw_total::cpu.data          32580860                       # Total bandwidth to/from this memory (bytes/s)
system.mem_ctrls.bw_total::total             48767241                       # Total bandwidth to/from this memory (bytes/s)
system.mem_ctrls.readReqs                     1128924                       # Number of read requests accepted
system.mem_ctrls.writeReqs                     558131                       # Number of write requests accepted
system.mem_ctrls.readBursts                   1128924                       # Number of DRAM read bursts, including those serviced by the write queue
system.mem_ctrls.writeBursts                   558131                       # Number of DRAM write bursts, including those merged in the write queue
system.mem_ctrls.bytesReadDRAM               72197312                       # Total number of bytes read from DRAM
system.mem_ctrls.bytesReadWrQ                   53824                       # Total number of bytes read from write queue
system.mem_ctrls.bytesWritten                30462848                       # Total number of bytes written to DRAM
system.mem_ctrls.bytesReadSys                36125568                       # Total read bytes from the system interface side
system.mem_ctrls.bytesWrittenSys             17860192                       # Total written bytes from the system interface side
system.mem_ctrls.servicedByWrQ                    841                       # Number of DRAM read bursts serviced by the write queue
system.mem_ctrls.mergedWrBursts                 82131                       # Number of DRAM write bursts merged with an existing one
system.mem_ctrls.neitherReadNorWriteReqs            0                       # Number of requests that are neither read nor write
system.mem_ctrls.perBankRdBursts::0             73242                       # Per bank write bursts
system.mem_ctrls.perBankRdBursts::1             71581                       # Per bank write bursts
system.mem_ctrls.perBankRdBursts::2             71432                       # Per bank write bursts
system.mem_ctrls.perBankRdBursts::3             68731                       # Per bank write bursts
system.mem_ctrls.perBankRdBursts::4             67658                       # Per bank write bursts
system.mem_ctrls.perBankRdBursts::5             67641                       # Per bank write bursts
system.mem_ctrls.perBankRdBursts::6             70338                       # Per bank write bursts
system.mem_ctrls.perBankRdBursts::7             68834                       # Per bank write bursts
system.mem_ctrls.perBankRdBursts::8             66342                       # Per bank write bursts
system.mem_ctrls.perBankRdBursts::9             66432                       # Per bank write bursts
system.mem_ctrls.perBankRdBursts::10            70340                       # Per bank write bursts
system.mem_ctrls.perBankRdBursts::11            71247                       # Per bank write bursts
system.mem_ctrls.perBankRdBursts::12            73339                       # Per bank write bursts
system.mem_ctrls.perBankRdBursts::13            73036                       # Per bank write bursts
system.mem_ctrls.perBankRdBursts::14            73326                       # Per bank write bursts
system.mem_ctrls.perBankRdBursts::15            74564                       # Per bank write bursts
system.mem_ctrls.perBankWrBursts::0             30588                       # Per bank write bursts
system.mem_ctrls.perBankWrBursts::1             30131                       # Per bank write bursts
system.mem_ctrls.perBankWrBursts::2             31086                       # Per bank write bursts
system.mem_ctrls.perBankWrBursts::3             29009                       # Per bank write bursts
system.mem_ctrls.perBankWrBursts::4             28544                       # Per bank write bursts
system.mem_ctrls.perBankWrBursts::5             28007                       # Per bank write bursts
system.mem_ctrls.perBankWrBursts::6             29653                       # Per bank write bursts
system.mem_ctrls.perBankWrBursts::7             29328                       # Per bank write bursts
system.mem_ctrls.perBankWrBursts::8             28480                       # Per bank write bursts
system.mem_ctrls.perBankWrBursts::9             28601                       # Per bank write bursts
system.mem_ctrls.perBankWrBursts::10            29774                       # Per bank write bursts
system.mem_ctrls.perBankWrBursts::11            29569                       # Per bank write bursts
system.mem_ctrls.perBankWrBursts::12            30372                       # Per bank write bursts
system.mem_ctrls.perBankWrBursts::13            30508                       # Per bank write bursts
system.mem_ctrls.perBankWrBursts::14            30758                       # Per bank write bursts
system.mem_ctrls.perBankWrBursts::15            31574                       # Per bank write bursts
system.mem_ctrls.numRdRetry                         0                       # Number of times read queue was full causing retry
system.mem_ctrls.numWrRetry                         0                       # Number of times write queue was full causing retry
system.mem_ctrls.totGap                  1107006057500                       # Total gap between requests
system.mem_ctrls.readPktSize::0                     0                       # Read request sizes (log2)
system.mem_ctrls.readPktSize::1                     0                       # Read request sizes (log2)
system.mem_ctrls.readPktSize::2                     0                       # Read request sizes (log2)
system.mem_ctrls.readPktSize::3                     0                       # Read request sizes (log2)
system.mem_ctrls.readPktSize::4                     0                       # Read request sizes (log2)
system.mem_ctrls.readPktSize::5               1128924                       # Read request sizes (log2)
system.mem_ctrls.readPktSize::6                     0                       # Read request sizes (log2)
system.mem_ctrls.writePktSize::0                    0                       # Write request sizes (log2)
system.mem_ctrls.writePktSize::1                    0                       # Write request sizes (log2)
system.mem_ctrls.writePktSize::2                    0                       # Write request sizes (log2)
system.mem_ctrls.writePktSize::3                    0                       # Write request sizes (log2)
system.mem_ctrls.writePktSize::4                    0                       # Write request sizes (log2)
system.mem_ctrls.writePktSize::5               558131                       # Write request sizes (log2)
system.mem_ctrls.writePktSize::6                    0                       # Write request sizes (log2)
system.mem_ctrls.rdQLenPdf::0                 1111639                       # What read queue length does an incoming req see
system.mem_ctrls.rdQLenPdf::1                    8180                       # What read queue length does an incoming req see
system.mem_ctrls.rdQLenPdf::2                    8252                       # What read queue length does an incoming req see
system.mem_ctrls.rdQLenPdf::3                      12                       # What read queue length does an incoming req see
system.mem_ctrls.rdQLenPdf::4                       0                       # What read queue length does an incoming req see
system.mem_ctrls.rdQLenPdf::5                       0                       # What read queue length does an incoming req see
system.mem_ctrls.rdQLenPdf::6                       0                       # What read queue length does an incoming req see
system.mem_ctrls.rdQLenPdf::7                       0                       # What read queue length does an incoming req see
system.mem_ctrls.rdQLenPdf::8                       0                       # What read queue length does an incoming req see
system.mem_ctrls.rdQLenPdf::9                       0                       # What read queue length does an incoming req see
system.mem_ctrls.rdQLenPdf::10                      0                       # What read queue length does an incoming req see
system.mem_ctrls.rdQLenPdf::11                      0                       # What read queue length does an incoming req see
system.mem_ctrls.rdQLenPdf::12                      0                       # What read queue length does an incoming req see
system.mem_ctrls.rdQLenPdf::13                      0                       # What read queue length does an incoming req see
system.mem_ctrls.rdQLenPdf::14                      0                       # What read queue length does an incoming req see
system.mem_ctrls.rdQLenPdf::15                      0                       # What read queue length does an incoming req see
system.mem_ctrls.rdQLenPdf::16                      0                       # What read queue length does an incoming req see
system.mem_ctrls.rdQLenPdf::17                      0                       # What read queue length does an incoming req see
system.mem_ctrls.rdQLenPdf::18                      0                       # What read queue length does an incoming req see
system.mem_ctrls.rdQLenPdf::19                      0                       # What read queue length does an incoming req see
system.mem_ctrls.rdQLenPdf::20                      0                       # What read queue length does an incoming req see
system.mem_ctrls.rdQLenPdf::21                      0                       # What read queue length does an incoming req see
system.mem_ctrls.rdQLenPdf::22                      0                       # What read queue length does an incoming req see
system.mem_ctrls.rdQLenPdf::23                      0                       # What read queue length does an incoming req see
system.mem_ctrls.rdQLenPdf::24                      0                       # What read queue length does an incoming req see
system.mem_ctrls.rdQLenPdf::25                      0                       # What read queue length does an incoming req see
system.mem_ctrls.rdQLenPdf::26                      0                       # What read queue length does an incoming req see
system.mem_ctrls.rdQLenPdf::27                      0                       # What read queue length does an incoming req see
system.mem_ctrls.rdQLenPdf::28                      0                       # What read queue length does an incoming req see
system.mem_ctrls.rdQLenPdf::29                      0                       # What read queue length does an incoming req see
system.mem_ctrls.rdQLenPdf::30                      0                       # What read queue length does an incoming req see
system.mem_ctrls.rdQLenPdf::31                      0                       # What read queue length does an incoming req see
system.mem_ctrls.wrQLenPdf::0                       1                       # What write queue length does an incoming req see
system.mem_ctrls.wrQLenPdf::1                       1                       # What write queue length does an incoming req see
system.mem_ctrls.wrQLenPdf::2                       1                       # What write queue length does an incoming req see
system.mem_ctrls.wrQLenPdf::3                       1                       # What write queue length does an incoming req see
system.mem_ctrls.wrQLenPdf::4                       1                       # What write queue length does an incoming req see
system.mem_ctrls.wrQLenPdf::5                       1                       # What write queue length does an incoming req see
system.mem_ctrls.wrQLenPdf::6                       1                       # What write queue length does an incoming req see
system.mem_ctrls.wrQLenPdf::7                       1                       # What write queue length does an incoming req see
system.mem_ctrls.wrQLenPdf::8                       1                       # What write queue length does an incoming req see
system.mem_ctrls.wrQLenPdf::9                       1                       # What write queue length does an incoming req see
system.mem_ctrls.wrQLenPdf::10                      1                       # What write queue length does an incoming req see
system.mem_ctrls.wrQLenPdf::11                      1                       # What write queue length does an incoming req see
system.mem_ctrls.wrQLenPdf::12                      1                       # What write queue length does an incoming req see
system.mem_ctrls.wrQLenPdf::13                      1                       # What write queue length does an incoming req see
system.mem_ctrls.wrQLenPdf::14                      1                       # What write queue length does an incoming req see
system.mem_ctrls.wrQLenPdf::15                  16824                       # What write queue length does an incoming req see
system.mem_ctrls.wrQLenPdf::16                  17668                       # What write queue length does an incoming req see
system.mem_ctrls.wrQLenPdf::17                  27476                       # What write queue length does an incoming req see
system.mem_ctrls.wrQLenPdf::18                  27575                       # What write queue length does an incoming req see
system.mem_ctrls.wrQLenPdf::19                  27576                       # What write queue length does an incoming req see
system.mem_ctrls.wrQLenPdf::20                  27592                       # What write queue length does an incoming req see
system.mem_ctrls.wrQLenPdf::21                  27578                       # What write queue length does an incoming req see
system.mem_ctrls.wrQLenPdf::22                  27577                       # What write queue length does an incoming req see
system.mem_ctrls.wrQLenPdf::23                  27571                       # What write queue length does an incoming req see
system.mem_ctrls.wrQLenPdf::24                  27571                       # What write queue length does an incoming req see
system.mem_ctrls.wrQLenPdf::25                  27567                       # What write queue length does an incoming req see
system.mem_ctrls.wrQLenPdf::26                  27580                       # What write queue length does an incoming req see
system.mem_ctrls.wrQLenPdf::27                  27585                       # What write queue length does an incoming req see
system.mem_ctrls.wrQLenPdf::28                  27638                       # What write queue length does an incoming req see
system.mem_ctrls.wrQLenPdf::29                  27841                       # What write queue length does an incoming req see
system.mem_ctrls.wrQLenPdf::30                  27629                       # What write queue length does an incoming req see
system.mem_ctrls.wrQLenPdf::31                  27571                       # What write queue length does an incoming req see
system.mem_ctrls.wrQLenPdf::32                  27566                       # What write queue length does an incoming req see
system.mem_ctrls.wrQLenPdf::33                      0                       # What write queue length does an incoming req see
system.mem_ctrls.wrQLenPdf::34                      0                       # What write queue length does an incoming req see
system.mem_ctrls.wrQLenPdf::35                      0                       # What write queue length does an incoming req see
system.mem_ctrls.wrQLenPdf::36                      0                       # What write queue length does an incoming req see
system.mem_ctrls.wrQLenPdf::37                      0                       # What write queue length does an incoming req see
system.mem_ctrls.wrQLenPdf::38                      0                       # What write queue length does an incoming req see
system.mem_ctrls.wrQLenPdf::39                      0                       # What write queue length does an incoming req see
system.mem_ctrls.wrQLenPdf::40                      0                       # What write queue length does an incoming req see
system.mem_ctrls.wrQLenPdf::41                      0                       # What write queue length does an incoming req see
system.mem_ctrls.wrQLenPdf::42                      0                       # What write queue length does an incoming req see
system.mem_ctrls.wrQLenPdf::43                      0                       # What write queue length does an incoming req see
system.mem_ctrls.wrQLenPdf::44                      0                       # What write queue length does an incoming req see
system.mem_ctrls.wrQLenPdf::45                      0                       # What write queue length does an incoming req see
system.mem_ctrls.wrQLenPdf::46                      0                       # What write queue length does an incoming req see
system.mem_ctrls.wrQLenPdf::47                      0                       # What write queue length does an incoming req see
system.mem_ctrls.wrQLenPdf::48                      0                       # What write queue length does an incoming req see
system.mem_ctrls.wrQLenPdf::49                      0                       # What write queue length does an incoming req see
system.mem_ctrls.wrQLenPdf::50                      0                       # What write queue length does an incoming req see
system.mem_ctrls.wrQLenPdf::51                      0                       # What write queue length does an incoming req see
system.mem_ctrls.wrQLenPdf::52                      0                       # What write queue length does an incoming req see
system.mem_ctrls.wrQLenPdf::53                      0                       # What write queue length does an incoming req see
system.mem_ctrls.wrQLenPdf::54                      0                       # What write queue length does an incoming req see
system.mem_ctrls.wrQLenPdf::55                      0                       # What write queue length does an incoming req see
system.mem_ctrls.wrQLenPdf::56                      0                       # What write queue length does an incoming req see
system.mem_ctrls.wrQLenPdf::57                      0                       # What write queue length does an incoming req see
system.mem_ctrls.wrQLenPdf::58                      0                       # What write queue length does an incoming req see
system.mem_ctrls.wrQLenPdf::59                      0                       # What write queue length does an incoming req see
system.mem_ctrls.wrQLenPdf::60                      0                       # What write queue length does an incoming req see
system.mem_ctrls.wrQLenPdf::61                      0                       # What write queue length does an incoming req see
system.mem_ctrls.wrQLenPdf::62                      0                       # What write queue length does an incoming req see
system.mem_ctrls.wrQLenPdf::63                      0                       # What write queue length does an incoming req see
system.mem_ctrls.bytesPerActivate::samples       765863                       # Bytes accessed per row activation
system.mem_ctrls.bytesPerActivate::mean    134.044987                       # Bytes accessed per row activation
system.mem_ctrls.bytesPerActivate::gmean    95.327432                       # Bytes accessed per row activation
system.mem_ctrls.bytesPerActivate::stdev   168.927515                       # Bytes accessed per row activation
system.mem_ctrls.bytesPerActivate::0-127       518459     67.70%     67.70% # Bytes accessed per row activation
system.mem_ctrls.bytesPerActivate::128-255       153877     20.09%     87.79% # Bytes accessed per row activation
system.mem_ctrls.bytesPerActivate::256-383        36987      4.83%     92.62% # Bytes accessed per row activation
system.mem_ctrls.bytesPerActivate::384-511        15293      2.00%     94.61% # Bytes accessed per row activation
system.mem_ctrls.bytesPerActivate::512-639        17446      2.28%     96.89% # Bytes accessed per row activation
system.mem_ctrls.bytesPerActivate::640-767         6362      0.83%     97.72% # Bytes accessed per row activation
system.mem_ctrls.bytesPerActivate::768-895         2382      0.31%     98.03% # Bytes accessed per row activation
system.mem_ctrls.bytesPerActivate::896-1023         1732      0.23%     98.26% # Bytes accessed per row activation
system.mem_ctrls.bytesPerActivate::1024-1151        13325      1.74%    100.00% # Bytes accessed per row activation
system.mem_ctrls.bytesPerActivate::total       765863                       # Bytes accessed per row activation
system.mem_ctrls.rdPerTurnAround::samples        27565                       # Reads before turning the bus around for writes
system.mem_ctrls.rdPerTurnAround::mean      40.923744                       # Reads before turning the bus around for writes
system.mem_ctrls.rdPerTurnAround::gmean     29.898842                       # Reads before turning the bus around for writes
system.mem_ctrls.rdPerTurnAround::stdev    236.580045                       # Reads before turning the bus around for writes
system.mem_ctrls.rdPerTurnAround::0-1023        27523     99.85%     99.85% # Reads before turning the bus around for writes
system.mem_ctrls.rdPerTurnAround::1024-2047           32      0.12%     99.96% # Reads before turning the bus around for writes
system.mem_ctrls.rdPerTurnAround::2048-3071            4      0.01%     99.98% # Reads before turning the bus around for writes
system.mem_ctrls.rdPerTurnAround::6144-7167            1      0.00%     99.98% # Reads before turning the bus around for writes
system.mem_ctrls.rdPerTurnAround::7168-8191            1      0.00%     99.99% # Reads before turning the bus around for writes
system.mem_ctrls.rdPerTurnAround::10240-11263            1      0.00%     99.99% # Reads before turning the bus around for writes
system.mem_ctrls.rdPerTurnAround::13312-14335            2      0.01%    100.00% # Reads before turning the bus around for writes
system.mem_ctrls.rdPerTurnAround::28672-29695            1      0.00%    100.00% # Reads before turning the bus around for writes
system.mem_ctrls.rdPerTurnAround::total         27565                       # Reads before turning the bus around for writes
system.mem_ctrls.wrPerTurnAround::samples        27565                       # Writes before turning the bus around for reads
system.mem_ctrls.wrPerTurnAround::mean      17.267622                       # Writes before turning the bus around for reads
system.mem_ctrls.wrPerTurnAround::gmean     17.239697                       # Writes before turning the bus around for reads
system.mem_ctrls.wrPerTurnAround::stdev      0.973170                       # Writes before turning the bus around for reads
system.mem_ctrls.wrPerTurnAround::16             9906     35.94%     35.94% # Writes before turning the bus around for reads
system.mem_ctrls.wrPerTurnAround::17              816      2.96%     38.90% # Writes before turning the bus around for reads
system.mem_ctrls.wrPerTurnAround::18            16408     59.52%     98.42% # Writes before turning the bus around for reads
system.mem_ctrls.wrPerTurnAround::19              430      1.56%     99.98% # Writes before turning the bus around for reads
system.mem_ctrls.wrPerTurnAround::20                5      0.02%    100.00% # Writes before turning the bus around for reads
system.mem_ctrls.wrPerTurnAround::total         27565                       # Writes before turning the bus around for reads
system.mem_ctrls.totQLat                  29097651750                       # Total ticks spent queuing
system.mem_ctrls.totMemAccLat             50249208000                       # Total ticks spent from burst creation until serviced by the DRAM
system.mem_ctrls.totBusLat                 5640415000                       # Total ticks spent in databus transfers
system.mem_ctrls.avgQLat                     25793.89                       # Average queueing delay per DRAM burst
system.mem_ctrls.avgBusLat                    5000.00                       # Average bus latency per DRAM burst
system.mem_ctrls.avgMemAccLat                44543.89                       # Average memory access latency per DRAM burst
system.mem_ctrls.avgRdBW                        65.22                       # Average DRAM read bandwidth in MiByte/s
system.mem_ctrls.avgWrBW                        27.52                       # Average achieved write bandwidth in MiByte/s
system.mem_ctrls.avgRdBWSys                     32.63                       # Average system read bandwidth in MiByte/s
system.mem_ctrls.avgWrBWSys                     16.13                       # Average system write bandwidth in MiByte/s
system.mem_ctrls.peakBW                      12800.00                       # Theoretical peak bandwidth in MiByte/s
system.mem_ctrls.busUtil                         0.72                       # Data bus utilization in percentage
system.mem_ctrls.busUtilRead                     0.51                       # Data bus utilization in percentage for reads
system.mem_ctrls.busUtilWrite                    0.21                       # Data bus utilization in percentage for writes
system.mem_ctrls.avgRdQLen                       1.00                       # Average read queue length when enqueuing
system.mem_ctrls.avgWrQLen                      24.04                       # Average write queue length when enqueuing
system.mem_ctrls.readRowHits                   604145                       # Number of row buffer hits during reads
system.mem_ctrls.writeRowHits                  234056                       # Number of row buffer hits during writes
system.mem_ctrls.readRowHitRate                 53.56                       # Row buffer hit rate for reads
system.mem_ctrls.writeRowHitRate                49.17                       # Row buffer hit rate for writes
system.mem_ctrls.avgGap                     656176.63                       # Average gap between requests
system.mem_ctrls.pageHitRate                    52.25                       # Row buffer hit rate, read and write combined
system.mem_ctrls_0.actEnergy               2699091360                       # Energy for activate commands per rank (pJ)
system.mem_ctrls_0.preEnergy               1434597285                       # Energy for precharge commands per rank (pJ)
system.mem_ctrls_0.readEnergy              3994522980                       # Energy for read commands per rank (pJ)
system.mem_ctrls_0.writeEnergy             1233726120                       # Energy for write commands per rank (pJ)
system.mem_ctrls_0.refreshEnergy         46445886240.000008                       # Energy for refresh commands per rank (pJ)
system.mem_ctrls_0.actBackEnergy          25771266930                       # Energy for active background per rank (pJ)
system.mem_ctrls_0.preBackEnergy           1722799680                       # Energy for precharge background per rank (pJ)
system.mem_ctrls_0.actPowerDownEnergy    160672958880                       # Energy for active power-down per rank (pJ)
system.mem_ctrls_0.prePowerDownEnergy     46489832640                       # Energy for precharge power-down per rank (pJ)
system.mem_ctrls_0.selfRefreshEnergy     141532884765                       # Energy for self refresh per rank (pJ)
system.mem_ctrls_0.totalEnergy           432007225020                       # Total energy per rank (pJ)
system.mem_ctrls_0.averagePower            390.247361                       # Core power per rank (mW)
system.mem_ctrls_0.totalIdleTime         1045979950250                       # Total Idle time Per DRAM Rank
system.mem_ctrls_0.memoryStateTime::IDLE   2413615000                       # Time in different power states
system.mem_ctrls_0.memoryStateTime::REF   19693030000                       # Time in different power states
system.mem_ctrls_0.memoryStateTime::SREF 572564578250                       # Time in different power states
system.mem_ctrls_0.memoryStateTime::PRE_PDN 121066896000                       # Time in different power states
system.mem_ctrls_0.memoryStateTime::ACT   38919433250                       # Time in different power states
system.mem_ctrls_0.memoryStateTime::ACT_PDN 352351147000                       # Time in different power states
system.mem_ctrls_1.actEnergy               2769177600                       # Energy for activate commands per rank (pJ)
system.mem_ctrls_1.preEnergy               1471852800                       # Energy for precharge commands per rank (pJ)
system.mem_ctrls_1.readEnergy              4059989640                       # Energy for read commands per rank (pJ)
system.mem_ctrls_1.writeEnergy             1250899920                       # Energy for write commands per rank (pJ)
system.mem_ctrls_1.refreshEnergy         46933910400.000008                       # Energy for refresh commands per rank (pJ)
system.mem_ctrls_1.actBackEnergy          26246471370                       # Energy for active background per rank (pJ)
system.mem_ctrls_1.preBackEnergy           1765377600                       # Energy for precharge background per rank (pJ)
system.mem_ctrls_1.actPowerDownEnergy    161476397820                       # Energy for active power-down per rank (pJ)
system.mem_ctrls_1.prePowerDownEnergy     47381571360                       # Energy for precharge power-down per rank (pJ)
system.mem_ctrls_1.selfRefreshEnergy     140348020410                       # Energy for self refresh per rank (pJ)
system.mem_ctrls_1.totalEnergy           433713260160                       # Total energy per rank (pJ)
system.mem_ctrls_1.averagePower            391.788483                       # Core power per rank (mW)
system.mem_ctrls_1.totalIdleTime         1044792809250                       # Total Idle time Per DRAM Rank
system.mem_ctrls_1.memoryStateTime::IDLE   2483996750                       # Time in different power states
system.mem_ctrls_1.memoryStateTime::REF   19900352000                       # Time in different power states
system.mem_ctrls_1.memoryStateTime::SREF 567327525750                       # Time in different power states
system.mem_ctrls_1.memoryStateTime::PRE_PDN 123388537000                       # Time in different power states
system.mem_ctrls_1.memoryStateTime::ACT   39793326500                       # Time in different power states
system.mem_ctrls_1.memoryStateTime::ACT_PDN 354114961500                       # Time in different power states
system.pwrStateResidencyTicks::UNDEFINED 1107008699500                       # Cumulative time (in ticks) in various power states
system.cpu_voltage_domain.voltage                   1                       # Voltage in Volts
system.cpu_clk_domain.clock                       500                       # Clock period in ticks
system.cpu.dtb.walker.pwrStateResidencyTicks::UNDEFINED 1107008699500                       # Cumulative time (in ticks) in various power states
system.cpu.apic_clk_domain.clock                 8000                       # Clock period in ticks
system.cpu.interrupts.pwrStateResidencyTicks::UNDEFINED 1107008699500                       # Cumulative time (in ticks) in various power states
system.cpu.itb.walker.pwrStateResidencyTicks::UNDEFINED 1107008699500                       # Cumulative time (in ticks) in various power states
system.cpu.workload.num_syscalls                   86                       # Number of system calls
system.cpu.pwrStateResidencyTicks::ON    1107008699500                       # Cumulative time (in ticks) in various power states
system.cpu.numCycles                       2214017399                       # number of cpu cycles simulated
system.cpu.numWorkItemsStarted                      0                       # number of work items this cpu started
system.cpu.numWorkItemsCompleted                    0                       # number of work items this cpu completed
system.cpu.committedInsts                   500000001                       # Number of instructions committed
system.cpu.committedOps                     730450447                       # Number of ops (including micro ops) committed
system.cpu.num_int_alu_accesses             729688906                       # Number of integer alu accesses
system.cpu.num_fp_alu_accesses                    663                       # Number of float alu accesses
system.cpu.num_func_calls                     1453961                       # number of times a function call or return occured
system.cpu.num_conditional_control_insts     31770496                       # number of instructions that are conditional controls
system.cpu.num_int_insts                    729688906                       # number of integer instructions
system.cpu.num_fp_insts                           663                       # number of float instructions
system.cpu.num_int_register_reads          1698743411                       # number of times the integer registers were read
system.cpu.num_int_register_writes          621892950                       # number of times the integer registers were written
system.cpu.num_fp_register_reads                 1009                       # number of times the floating registers were read
system.cpu.num_fp_register_writes                 429                       # number of times the floating registers were written
system.cpu.num_cc_register_reads            180840559                       # number of times the CC registers were read
system.cpu.num_cc_register_writes           276245121                       # number of times the CC registers were written
system.cpu.num_mem_refs                     295985461                       # number of memory refs
system.cpu.num_load_insts                   225946751                       # Number of load instructions
system.cpu.num_store_insts                   70038710                       # Number of store instructions
system.cpu.num_idle_cycles                          0                       # Number of idle cycles
system.cpu.num_busy_cycles                 2214017399                       # Number of busy cycles
system.cpu.not_idle_fraction                        1                       # Percentage of non-idle cycles
system.cpu.idle_fraction                            0                       # Percentage of idle cycles
system.cpu.Branches                          37843296                       # Number of branches fetched
system.cpu.op_class::No_OpClass                 94740      0.01%      0.01% # Class of executed instruction
system.cpu.op_class::IntAlu                 434349067     59.46%     59.48% # Class of executed instruction
system.cpu.op_class::IntMult                    20662      0.00%     59.48% # Class of executed instruction
system.cpu.op_class::IntDiv                       119      0.00%     59.48% # Class of executed instruction
system.cpu.op_class::FloatAdd                     398      0.00%     59.48% # Class of executed instruction
system.cpu.op_class::FloatCmp                       0      0.00%     59.48% # Class of executed instruction
system.cpu.op_class::FloatCvt                       0      0.00%     59.48% # Class of executed instruction
system.cpu.op_class::FloatMult                      0      0.00%     59.48% # Class of executed instruction
system.cpu.op_class::FloatDiv                       0      0.00%     59.48% # Class of executed instruction
system.cpu.op_class::FloatSqrt                      0      0.00%     59.48% # Class of executed instruction
system.cpu.op_class::SimdAdd                        0      0.00%     59.48% # Class of executed instruction
system.cpu.op_class::SimdAddAcc                     0      0.00%     59.48% # Class of executed instruction
system.cpu.op_class::SimdAlu                        0      0.00%     59.48% # Class of executed instruction
system.cpu.op_class::SimdCmp                        0      0.00%     59.48% # Class of executed instruction
system.cpu.op_class::SimdCvt                        0      0.00%     59.48% # Class of executed instruction
system.cpu.op_class::SimdMisc                       0      0.00%     59.48% # Class of executed instruction
system.cpu.op_class::SimdMult                       0      0.00%     59.48% # Class of executed instruction
system.cpu.op_class::SimdMultAcc                    0      0.00%     59.48% # Class of executed instruction
system.cpu.op_class::SimdShift                      0      0.00%     59.48% # Class of executed instruction
system.cpu.op_class::SimdShiftAcc                   0      0.00%     59.48% # Class of executed instruction
system.cpu.op_class::SimdSqrt                       0      0.00%     59.48% # Class of executed instruction
system.cpu.op_class::SimdFloatAdd                   0      0.00%     59.48% # Class of executed instruction
system.cpu.op_class::SimdFloatAlu                   0      0.00%     59.48% # Class of executed instruction
system.cpu.op_class::SimdFloatCmp                   0      0.00%     59.48% # Class of executed instruction
system.cpu.op_class::SimdFloatCvt                   0      0.00%     59.48% # Class of executed instruction
system.cpu.op_class::SimdFloatDiv                   0      0.00%     59.48% # Class of executed instruction
system.cpu.op_class::SimdFloatMisc                  0      0.00%     59.48% # Class of executed instruction
system.cpu.op_class::SimdFloatMult                  0      0.00%     59.48% # Class of executed instruction
system.cpu.op_class::SimdFloatMultAcc               0      0.00%     59.48% # Class of executed instruction
system.cpu.op_class::SimdFloatSqrt                  0      0.00%     59.48% # Class of executed instruction
system.cpu.op_class::MemRead                225946751     30.93%     90.41% # Class of executed instruction
system.cpu.op_class::MemWrite                70038710      9.59%    100.00% # Class of executed instruction
system.cpu.op_class::IprAccess                      0      0.00%    100.00% # Class of executed instruction
system.cpu.op_class::InstPrefetch                   0      0.00%    100.00% # Class of executed instruction
system.cpu.op_class::total                  730450447                       # Class of executed instruction
system.cpu.dcache.tags.pwrStateResidencyTicks::UNDEFINED 1107008699500                       # Cumulative time (in ticks) in various power states
system.cpu.dcache.tags.replacements           2422595                       # number of replacements
system.cpu.dcache.tags.tagsinuse          4083.193203                       # Cycle average of tags in use
system.cpu.dcache.tags.total_refs           293558783                       # Total number of references to valid blocks.
system.cpu.dcache.tags.sampled_refs           2426691                       # Sample count of references to valid blocks.
system.cpu.dcache.tags.avg_refs            120.970813                       # Average number of references to valid blocks.
system.cpu.dcache.tags.warmup_cycle        3967016500                       # Cycle when the warmup percentage was hit.
system.cpu.dcache.tags.occ_blocks::cpu.data  4083.193203                       # Average occupied blocks per requestor
system.cpu.dcache.tags.occ_percent::cpu.data     0.996873                       # Average percentage of cache occupancy
system.cpu.dcache.tags.occ_percent::total     0.996873                       # Average percentage of cache occupancy
system.cpu.dcache.tags.occ_task_id_blocks::1024         4096                       # Occupied blocks per task id
system.cpu.dcache.tags.age_task_id_blocks_1024::0            1                       # Occupied blocks per task id
system.cpu.dcache.tags.age_task_id_blocks_1024::1            3                       # Occupied blocks per task id
system.cpu.dcache.tags.age_task_id_blocks_1024::2           32                       # Occupied blocks per task id
system.cpu.dcache.tags.age_task_id_blocks_1024::3         2848                       # Occupied blocks per task id
system.cpu.dcache.tags.age_task_id_blocks_1024::4         1212                       # Occupied blocks per task id
system.cpu.dcache.tags.occ_task_id_percent::1024            1                       # Percentage of cache occupancy per task id
system.cpu.dcache.tags.tag_accesses         594397639                       # Number of tag accesses
system.cpu.dcache.tags.data_accesses        594397639                       # Number of data accesses
system.cpu.dcache.pwrStateResidencyTicks::UNDEFINED 1107008699500                       # Cumulative time (in ticks) in various power states
system.cpu.dcache.ReadReq_hits::cpu.data    224231623                       # number of ReadReq hits
system.cpu.dcache.ReadReq_hits::total       224231623                       # number of ReadReq hits
system.cpu.dcache.WriteReq_hits::cpu.data     69327160                       # number of WriteReq hits
system.cpu.dcache.WriteReq_hits::total       69327160                       # number of WriteReq hits
system.cpu.dcache.demand_hits::cpu.data     293558783                       # number of demand (read+write) hits
system.cpu.dcache.demand_hits::total        293558783                       # number of demand (read+write) hits
system.cpu.dcache.overall_hits::cpu.data    293558783                       # number of overall hits
system.cpu.dcache.overall_hits::total       293558783                       # number of overall hits
system.cpu.dcache.ReadReq_misses::cpu.data      1698755                       # number of ReadReq misses
system.cpu.dcache.ReadReq_misses::total       1698755                       # number of ReadReq misses
system.cpu.dcache.WriteReq_misses::cpu.data       711552                       # number of WriteReq misses
system.cpu.dcache.WriteReq_misses::total       711552                       # number of WriteReq misses
system.cpu.dcache.SoftPFReq_misses::cpu.data        16384                       # number of SoftPFReq misses
system.cpu.dcache.SoftPFReq_misses::total        16384                       # number of SoftPFReq misses
system.cpu.dcache.demand_misses::cpu.data      2410307                       # number of demand (read+write) misses
system.cpu.dcache.demand_misses::total        2410307                       # number of demand (read+write) misses
system.cpu.dcache.overall_misses::cpu.data      2426691                       # number of overall misses
system.cpu.dcache.overall_misses::total       2426691                       # number of overall misses
system.cpu.dcache.ReadReq_miss_latency::cpu.data  79140539500                       # number of ReadReq miss cycles
system.cpu.dcache.ReadReq_miss_latency::total  79140539500                       # number of ReadReq miss cycles
system.cpu.dcache.WriteReq_miss_latency::cpu.data  46731548500                       # number of WriteReq miss cycles
system.cpu.dcache.WriteReq_miss_latency::total  46731548500                       # number of WriteReq miss cycles
system.cpu.dcache.demand_miss_latency::cpu.data 125872088000                       # number of demand (read+write) miss cycles
system.cpu.dcache.demand_miss_latency::total 125872088000                       # number of demand (read+write) miss cycles
system.cpu.dcache.overall_miss_latency::cpu.data 125872088000                       # number of overall miss cycles
system.cpu.dcache.overall_miss_latency::total 125872088000                       # number of overall miss cycles
system.cpu.dcache.ReadReq_accesses::cpu.data    225930378                       # number of ReadReq accesses(hits+misses)
system.cpu.dcache.ReadReq_accesses::total    225930378                       # number of ReadReq accesses(hits+misses)
system.cpu.dcache.WriteReq_accesses::cpu.data     70038712                       # number of WriteReq accesses(hits+misses)
system.cpu.dcache.WriteReq_accesses::total     70038712                       # number of WriteReq accesses(hits+misses)
system.cpu.dcache.SoftPFReq_accesses::cpu.data        16384                       # number of SoftPFReq accesses(hits+misses)
system.cpu.dcache.SoftPFReq_accesses::total        16384                       # number of SoftPFReq accesses(hits+misses)
system.cpu.dcache.demand_accesses::cpu.data    295969090                       # number of demand (read+write) accesses
system.cpu.dcache.demand_accesses::total    295969090                       # number of demand (read+write) accesses
system.cpu.dcache.overall_accesses::cpu.data    295985474                       # number of overall (read+write) accesses
system.cpu.dcache.overall_accesses::total    295985474                       # number of overall (read+write) accesses
system.cpu.dcache.ReadReq_miss_rate::cpu.data     0.007519                       # miss rate for ReadReq accesses
system.cpu.dcache.ReadReq_miss_rate::total     0.007519                       # miss rate for ReadReq accesses
system.cpu.dcache.WriteReq_miss_rate::cpu.data     0.010159                       # miss rate for WriteReq accesses
system.cpu.dcache.WriteReq_miss_rate::total     0.010159                       # miss rate for WriteReq accesses
system.cpu.dcache.SoftPFReq_miss_rate::cpu.data            1                       # miss rate for SoftPFReq accesses
system.cpu.dcache.SoftPFReq_miss_rate::total            1                       # miss rate for SoftPFReq accesses
system.cpu.dcache.demand_miss_rate::cpu.data     0.008144                       # miss rate for demand accesses
system.cpu.dcache.demand_miss_rate::total     0.008144                       # miss rate for demand accesses
system.cpu.dcache.overall_miss_rate::cpu.data     0.008199                       # miss rate for overall accesses
system.cpu.dcache.overall_miss_rate::total     0.008199                       # miss rate for overall accesses
system.cpu.dcache.ReadReq_avg_miss_latency::cpu.data 46587.376932                       # average ReadReq miss latency
system.cpu.dcache.ReadReq_avg_miss_latency::total 46587.376932                       # average ReadReq miss latency
system.cpu.dcache.WriteReq_avg_miss_latency::cpu.data 65675.521255                       # average WriteReq miss latency
system.cpu.dcache.WriteReq_avg_miss_latency::total 65675.521255                       # average WriteReq miss latency
system.cpu.dcache.demand_avg_miss_latency::cpu.data 52222.429757                       # average overall miss latency
system.cpu.dcache.demand_avg_miss_latency::total 52222.429757                       # average overall miss latency
system.cpu.dcache.overall_avg_miss_latency::cpu.data 51869.845811                       # average overall miss latency
system.cpu.dcache.overall_avg_miss_latency::total 51869.845811                       # average overall miss latency
system.cpu.dcache.blocked_cycles::no_mshrs         2634                       # number of cycles access was blocked
system.cpu.dcache.blocked_cycles::no_targets            0                       # number of cycles access was blocked
system.cpu.dcache.blocked::no_mshrs                14                       # number of cycles access was blocked
system.cpu.dcache.blocked::no_targets               0                       # number of cycles access was blocked
system.cpu.dcache.avg_blocked_cycles::no_mshrs   188.142857                       # average number of cycles each access was blocked
system.cpu.dcache.avg_blocked_cycles::no_targets          nan                       # average number of cycles each access was blocked
system.cpu.dcache.writebacks::writebacks      1108164                       # number of writebacks
system.cpu.dcache.writebacks::total           1108164                       # number of writebacks
system.cpu.dcache.ReadReq_mshr_misses::cpu.data      1698755                       # number of ReadReq MSHR misses
system.cpu.dcache.ReadReq_mshr_misses::total      1698755                       # number of ReadReq MSHR misses
system.cpu.dcache.WriteReq_mshr_misses::cpu.data       711552                       # number of WriteReq MSHR misses
system.cpu.dcache.WriteReq_mshr_misses::total       711552                       # number of WriteReq MSHR misses
system.cpu.dcache.SoftPFReq_mshr_misses::cpu.data        16384                       # number of SoftPFReq MSHR misses
system.cpu.dcache.SoftPFReq_mshr_misses::total        16384                       # number of SoftPFReq MSHR misses
system.cpu.dcache.demand_mshr_misses::cpu.data      2410307                       # number of demand (read+write) MSHR misses
system.cpu.dcache.demand_mshr_misses::total      2410307                       # number of demand (read+write) MSHR misses
system.cpu.dcache.overall_mshr_misses::cpu.data      2426691                       # number of overall MSHR misses
system.cpu.dcache.overall_mshr_misses::total      2426691                       # number of overall MSHR misses
system.cpu.dcache.ReadReq_mshr_miss_latency::cpu.data  77441784500                       # number of ReadReq MSHR miss cycles
system.cpu.dcache.ReadReq_mshr_miss_latency::total  77441784500                       # number of ReadReq MSHR miss cycles
system.cpu.dcache.WriteReq_mshr_miss_latency::cpu.data  46019996500                       # number of WriteReq MSHR miss cycles
system.cpu.dcache.WriteReq_mshr_miss_latency::total  46019996500                       # number of WriteReq MSHR miss cycles
system.cpu.dcache.SoftPFReq_mshr_miss_latency::cpu.data   1365531000                       # number of SoftPFReq MSHR miss cycles
system.cpu.dcache.SoftPFReq_mshr_miss_latency::total   1365531000                       # number of SoftPFReq MSHR miss cycles
system.cpu.dcache.demand_mshr_miss_latency::cpu.data 123461781000                       # number of demand (read+write) MSHR miss cycles
system.cpu.dcache.demand_mshr_miss_latency::total 123461781000                       # number of demand (read+write) MSHR miss cycles
system.cpu.dcache.overall_mshr_miss_latency::cpu.data 124827312000                       # number of overall MSHR miss cycles
system.cpu.dcache.overall_mshr_miss_latency::total 124827312000                       # number of overall MSHR miss cycles
system.cpu.dcache.ReadReq_mshr_miss_rate::cpu.data     0.007519                       # mshr miss rate for ReadReq accesses
system.cpu.dcache.ReadReq_mshr_miss_rate::total     0.007519                       # mshr miss rate for ReadReq accesses
system.cpu.dcache.WriteReq_mshr_miss_rate::cpu.data     0.010159                       # mshr miss rate for WriteReq accesses
system.cpu.dcache.WriteReq_mshr_miss_rate::total     0.010159                       # mshr miss rate for WriteReq accesses
system.cpu.dcache.SoftPFReq_mshr_miss_rate::cpu.data            1                       # mshr miss rate for SoftPFReq accesses
system.cpu.dcache.SoftPFReq_mshr_miss_rate::total            1                       # mshr miss rate for SoftPFReq accesses
system.cpu.dcache.demand_mshr_miss_rate::cpu.data     0.008144                       # mshr miss rate for demand accesses
system.cpu.dcache.demand_mshr_miss_rate::total     0.008144                       # mshr miss rate for demand accesses
system.cpu.dcache.overall_mshr_miss_rate::cpu.data     0.008199                       # mshr miss rate for overall accesses
system.cpu.dcache.overall_mshr_miss_rate::total     0.008199                       # mshr miss rate for overall accesses
system.cpu.dcache.ReadReq_avg_mshr_miss_latency::cpu.data 45587.376932                       # average ReadReq mshr miss latency
system.cpu.dcache.ReadReq_avg_mshr_miss_latency::total 45587.376932                       # average ReadReq mshr miss latency
system.cpu.dcache.WriteReq_avg_mshr_miss_latency::cpu.data 64675.521255                       # average WriteReq mshr miss latency
system.cpu.dcache.WriteReq_avg_mshr_miss_latency::total 64675.521255                       # average WriteReq mshr miss latency
system.cpu.dcache.SoftPFReq_avg_mshr_miss_latency::cpu.data 83345.397949                       # average SoftPFReq mshr miss latency
system.cpu.dcache.SoftPFReq_avg_mshr_miss_latency::total 83345.397949                       # average SoftPFReq mshr miss latency
system.cpu.dcache.demand_avg_mshr_miss_latency::cpu.data 51222.429757                       # average overall mshr miss latency
system.cpu.dcache.demand_avg_mshr_miss_latency::total 51222.429757                       # average overall mshr miss latency
system.cpu.dcache.overall_avg_mshr_miss_latency::cpu.data 51439.310567                       # average overall mshr miss latency
system.cpu.dcache.overall_avg_mshr_miss_latency::total 51439.310567                       # average overall mshr miss latency
system.cpu.dtb_walker_cache.tags.pwrStateResidencyTicks::UNDEFINED 1107008699500                       # Cumulative time (in ticks) in various power states
system.cpu.dtb_walker_cache.tags.replacements            0                       # number of replacements
system.cpu.dtb_walker_cache.tags.tagsinuse            0                       # Cycle average of tags in use
system.cpu.dtb_walker_cache.tags.total_refs            0                       # Total number of references to valid blocks.
system.cpu.dtb_walker_cache.tags.sampled_refs            0                       # Sample count of references to valid blocks.
system.cpu.dtb_walker_cache.tags.avg_refs          nan                       # Average number of references to valid blocks.
system.cpu.dtb_walker_cache.tags.warmup_cycle            0                       # Cycle when the warmup percentage was hit.
system.cpu.dtb_walker_cache.tags.tag_accesses            0                       # Number of tag accesses
system.cpu.dtb_walker_cache.tags.data_accesses            0                       # Number of data accesses
system.cpu.dtb_walker_cache.pwrStateResidencyTicks::UNDEFINED 1107008699500                       # Cumulative time (in ticks) in various power states
system.cpu.dtb_walker_cache.blocked_cycles::no_mshrs            0                       # number of cycles access was blocked
system.cpu.dtb_walker_cache.blocked_cycles::no_targets            0                       # number of cycles access was blocked
system.cpu.dtb_walker_cache.blocked::no_mshrs            0                       # number of cycles access was blocked
system.cpu.dtb_walker_cache.blocked::no_targets            0                       # number of cycles access was blocked
system.cpu.dtb_walker_cache.avg_blocked_cycles::no_mshrs          nan                       # average number of cycles each access was blocked
system.cpu.dtb_walker_cache.avg_blocked_cycles::no_targets          nan                       # average number of cycles each access was blocked
system.cpu.icache.tags.pwrStateResidencyTicks::UNDEFINED 1107008699500                       # Cumulative time (in ticks) in various power states
system.cpu.icache.tags.replacements               858                       # number of replacements
system.cpu.icache.tags.tagsinuse           859.862094                       # Cycle average of tags in use
system.cpu.icache.tags.total_refs           687396000                       # Total number of references to valid blocks.
system.cpu.icache.tags.sampled_refs              1862                       # Sample count of references to valid blocks.
system.cpu.icache.tags.avg_refs          369170.784103                       # Average number of references to valid blocks.
system.cpu.icache.tags.warmup_cycle                 0                       # Cycle when the warmup percentage was hit.
system.cpu.icache.tags.occ_blocks::cpu.inst   859.862094                       # Average occupied blocks per requestor
system.cpu.icache.tags.occ_percent::cpu.inst     0.839709                       # Average percentage of cache occupancy
system.cpu.icache.tags.occ_percent::total     0.839709                       # Average percentage of cache occupancy
system.cpu.icache.tags.occ_task_id_blocks::1024         1004                       # Occupied blocks per task id
system.cpu.icache.tags.age_task_id_blocks_1024::1           14                       # Occupied blocks per task id
system.cpu.icache.tags.age_task_id_blocks_1024::3           50                       # Occupied blocks per task id
system.cpu.icache.tags.age_task_id_blocks_1024::4          940                       # Occupied blocks per task id
system.cpu.icache.tags.occ_task_id_percent::1024     0.980469                       # Percentage of cache occupancy per task id
system.cpu.icache.tags.tag_accesses        1374797586                       # Number of tag accesses
system.cpu.icache.tags.data_accesses       1374797586                       # Number of data accesses
system.cpu.icache.pwrStateResidencyTicks::UNDEFINED 1107008699500                       # Cumulative time (in ticks) in various power states
system.cpu.icache.ReadReq_hits::cpu.inst    687396000                       # number of ReadReq hits
system.cpu.icache.ReadReq_hits::total       687396000                       # number of ReadReq hits
system.cpu.icache.demand_hits::cpu.inst     687396000                       # number of demand (read+write) hits
system.cpu.icache.demand_hits::total        687396000                       # number of demand (read+write) hits
system.cpu.icache.overall_hits::cpu.inst    687396000                       # number of overall hits
system.cpu.icache.overall_hits::total       687396000                       # number of overall hits
system.cpu.icache.ReadReq_misses::cpu.inst         1862                       # number of ReadReq misses
system.cpu.icache.ReadReq_misses::total          1862                       # number of ReadReq misses
system.cpu.icache.demand_misses::cpu.inst         1862                       # number of demand (read+write) misses
system.cpu.icache.demand_misses::total           1862                       # number of demand (read+write) misses
system.cpu.icache.overall_misses::cpu.inst         1862                       # number of overall misses
system.cpu.icache.overall_misses::total          1862                       # number of overall misses
system.cpu.icache.ReadReq_miss_latency::cpu.inst    164214000                       # number of ReadReq miss cycles
system.cpu.icache.ReadReq_miss_latency::total    164214000                       # number of ReadReq miss cycles
system.cpu.icache.demand_miss_latency::cpu.inst    164214000                       # number of demand (read+write) miss cycles
system.cpu.icache.demand_miss_latency::total    164214000                       # number of demand (read+write) miss cycles
system.cpu.icache.overall_miss_latency::cpu.inst    164214000                       # number of overall miss cycles
system.cpu.icache.overall_miss_latency::total    164214000                       # number of overall miss cycles
system.cpu.icache.ReadReq_accesses::cpu.inst    687397862                       # number of ReadReq accesses(hits+misses)
system.cpu.icache.ReadReq_accesses::total    687397862                       # number of ReadReq accesses(hits+misses)
system.cpu.icache.demand_accesses::cpu.inst    687397862                       # number of demand (read+write) accesses
system.cpu.icache.demand_accesses::total    687397862                       # number of demand (read+write) accesses
system.cpu.icache.overall_accesses::cpu.inst    687397862                       # number of overall (read+write) accesses
system.cpu.icache.overall_accesses::total    687397862                       # number of overall (read+write) accesses
system.cpu.icache.ReadReq_miss_rate::cpu.inst     0.000003                       # miss rate for ReadReq accesses
system.cpu.icache.ReadReq_miss_rate::total     0.000003                       # miss rate for ReadReq accesses
system.cpu.icache.demand_miss_rate::cpu.inst     0.000003                       # miss rate for demand accesses
system.cpu.icache.demand_miss_rate::total     0.000003                       # miss rate for demand accesses
system.cpu.icache.overall_miss_rate::cpu.inst     0.000003                       # miss rate for overall accesses
system.cpu.icache.overall_miss_rate::total     0.000003                       # miss rate for overall accesses
system.cpu.icache.ReadReq_avg_miss_latency::cpu.inst 88192.266380                       # average ReadReq miss latency
system.cpu.icache.ReadReq_avg_miss_latency::total 88192.266380                       # average ReadReq miss latency
system.cpu.icache.demand_avg_miss_latency::cpu.inst 88192.266380                       # average overall miss latency
system.cpu.icache.demand_avg_miss_latency::total 88192.266380                       # average overall miss latency
system.cpu.icache.overall_avg_miss_latency::cpu.inst 88192.266380                       # average overall miss latency
system.cpu.icache.overall_avg_miss_latency::total 88192.266380                       # average overall miss latency
system.cpu.icache.blocked_cycles::no_mshrs            0                       # number of cycles access was blocked
system.cpu.icache.blocked_cycles::no_targets            0                       # number of cycles access was blocked
system.cpu.icache.blocked::no_mshrs                 0                       # number of cycles access was blocked
system.cpu.icache.blocked::no_targets               0                       # number of cycles access was blocked
system.cpu.icache.avg_blocked_cycles::no_mshrs          nan                       # average number of cycles each access was blocked
system.cpu.icache.avg_blocked_cycles::no_targets          nan                       # average number of cycles each access was blocked
system.cpu.icache.writebacks::writebacks          858                       # number of writebacks
system.cpu.icache.writebacks::total               858                       # number of writebacks
system.cpu.icache.ReadReq_mshr_misses::cpu.inst         1862                       # number of ReadReq MSHR misses
system.cpu.icache.ReadReq_mshr_misses::total         1862                       # number of ReadReq MSHR misses
system.cpu.icache.demand_mshr_misses::cpu.inst         1862                       # number of demand (read+write) MSHR misses
system.cpu.icache.demand_mshr_misses::total         1862                       # number of demand (read+write) MSHR misses
system.cpu.icache.overall_mshr_misses::cpu.inst         1862                       # number of overall MSHR misses
system.cpu.icache.overall_mshr_misses::total         1862                       # number of overall MSHR misses
system.cpu.icache.ReadReq_mshr_miss_latency::cpu.inst    162352000                       # number of ReadReq MSHR miss cycles
system.cpu.icache.ReadReq_mshr_miss_latency::total    162352000                       # number of ReadReq MSHR miss cycles
system.cpu.icache.demand_mshr_miss_latency::cpu.inst    162352000                       # number of demand (read+write) MSHR miss cycles
system.cpu.icache.demand_mshr_miss_latency::total    162352000                       # number of demand (read+write) MSHR miss cycles
system.cpu.icache.overall_mshr_miss_latency::cpu.inst    162352000                       # number of overall MSHR miss cycles
system.cpu.icache.overall_mshr_miss_latency::total    162352000                       # number of overall MSHR miss cycles
system.cpu.icache.ReadReq_mshr_miss_rate::cpu.inst     0.000003                       # mshr miss rate for ReadReq accesses
system.cpu.icache.ReadReq_mshr_miss_rate::total     0.000003                       # mshr miss rate for ReadReq accesses
system.cpu.icache.demand_mshr_miss_rate::cpu.inst     0.000003                       # mshr miss rate for demand accesses
system.cpu.icache.demand_mshr_miss_rate::total     0.000003                       # mshr miss rate for demand accesses
system.cpu.icache.overall_mshr_miss_rate::cpu.inst     0.000003                       # mshr miss rate for overall accesses
system.cpu.icache.overall_mshr_miss_rate::total     0.000003                       # mshr miss rate for overall accesses
system.cpu.icache.ReadReq_avg_mshr_miss_latency::cpu.inst 87192.266380                       # average ReadReq mshr miss latency
system.cpu.icache.ReadReq_avg_mshr_miss_latency::total 87192.266380                       # average ReadReq mshr miss latency
system.cpu.icache.demand_avg_mshr_miss_latency::cpu.inst 87192.266380                       # average overall mshr miss latency
system.cpu.icache.demand_avg_mshr_miss_latency::total 87192.266380                       # average overall mshr miss latency
system.cpu.icache.overall_avg_mshr_miss_latency::cpu.inst 87192.266380                       # average overall mshr miss latency
system.cpu.icache.overall_avg_mshr_miss_latency::total 87192.266380                       # average overall mshr miss latency
system.cpu.itb_walker_cache.tags.pwrStateResidencyTicks::UNDEFINED 1107008699500                       # Cumulative time (in ticks) in various power states
system.cpu.itb_walker_cache.tags.replacements            0                       # number of replacements
system.cpu.itb_walker_cache.tags.tagsinuse            0                       # Cycle average of tags in use
system.cpu.itb_walker_cache.tags.total_refs            0                       # Total number of references to valid blocks.
system.cpu.itb_walker_cache.tags.sampled_refs            0                       # Sample count of references to valid blocks.
system.cpu.itb_walker_cache.tags.avg_refs          nan                       # Average number of references to valid blocks.
system.cpu.itb_walker_cache.tags.warmup_cycle            0                       # Cycle when the warmup percentage was hit.
system.cpu.itb_walker_cache.tags.tag_accesses            0                       # Number of tag accesses
system.cpu.itb_walker_cache.tags.data_accesses            0                       # Number of data accesses
system.cpu.itb_walker_cache.pwrStateResidencyTicks::UNDEFINED 1107008699500                       # Cumulative time (in ticks) in various power states
system.cpu.itb_walker_cache.blocked_cycles::no_mshrs            0                       # number of cycles access was blocked
system.cpu.itb_walker_cache.blocked_cycles::no_targets            0                       # number of cycles access was blocked
system.cpu.itb_walker_cache.blocked::no_mshrs            0                       # number of cycles access was blocked
system.cpu.itb_walker_cache.blocked::no_targets            0                       # number of cycles access was blocked
system.cpu.itb_walker_cache.avg_blocked_cycles::no_mshrs          nan                       # average number of cycles each access was blocked
system.cpu.itb_walker_cache.avg_blocked_cycles::no_targets          nan                       # average number of cycles each access was blocked
system.l2.tags.pwrStateResidencyTicks::UNDEFINED 1107008699500                       # Cumulative time (in ticks) in various power states
system.l2.tags.replacements                   1180898                       # number of replacements
system.l2.tags.tagsinuse                 32633.276159                       # Cycle average of tags in use
system.l2.tags.total_refs                     3543923                       # Total number of references to valid blocks.
system.l2.tags.sampled_refs                   1213666                       # Sample count of references to valid blocks.
system.l2.tags.avg_refs                      2.920015                       # Average number of references to valid blocks.
system.l2.tags.warmup_cycle                6672904000                       # Cycle when the warmup percentage was hit.
system.l2.tags.occ_blocks::writebacks     1251.554133                       # Average occupied blocks per requestor
system.l2.tags.occ_blocks::cpu.inst          8.493997                       # Average occupied blocks per requestor
system.l2.tags.occ_blocks::cpu.data      31373.228028                       # Average occupied blocks per requestor
system.l2.tags.occ_percent::writebacks       0.038194                       # Average percentage of cache occupancy
system.l2.tags.occ_percent::cpu.inst         0.000259                       # Average percentage of cache occupancy
system.l2.tags.occ_percent::cpu.data         0.957435                       # Average percentage of cache occupancy
system.l2.tags.occ_percent::total            0.995889                       # Average percentage of cache occupancy
system.l2.tags.occ_task_id_blocks::1024         32768                       # Occupied blocks per task id
system.l2.tags.age_task_id_blocks_1024::0            1                       # Occupied blocks per task id
system.l2.tags.age_task_id_blocks_1024::1           30                       # Occupied blocks per task id
system.l2.tags.age_task_id_blocks_1024::2           32                       # Occupied blocks per task id
system.l2.tags.age_task_id_blocks_1024::3          484                       # Occupied blocks per task id
system.l2.tags.age_task_id_blocks_1024::4        32221                       # Occupied blocks per task id
system.l2.tags.occ_task_id_percent::1024            1                       # Percentage of cache occupancy per task id
system.l2.tags.tag_accesses                   6065671                       # Number of tag accesses
system.l2.tags.data_accesses                  6065671                       # Number of data accesses
system.l2.pwrStateResidencyTicks::UNDEFINED 1107008699500                       # Cumulative time (in ticks) in various power states
system.l2.WritebackDirty_hits::writebacks      1108164                       # number of WritebackDirty hits
system.l2.WritebackDirty_hits::total          1108164                       # number of WritebackDirty hits
system.l2.WritebackClean_hits::writebacks          858                       # number of WritebackClean hits
system.l2.WritebackClean_hits::total              858                       # number of WritebackClean hits
system.l2.ReadExReq_hits::cpu.data             252849                       # number of ReadExReq hits
system.l2.ReadExReq_hits::total                252849                       # number of ReadExReq hits
system.l2.ReadCleanReq_hits::cpu.inst              41                       # number of ReadCleanReq hits
system.l2.ReadCleanReq_hits::total                 41                       # number of ReadCleanReq hits
system.l2.ReadSharedReq_hits::cpu.data        1046739                       # number of ReadSharedReq hits
system.l2.ReadSharedReq_hits::total           1046739                       # number of ReadSharedReq hits
system.l2.demand_hits::cpu.inst                    41                       # number of demand (read+write) hits
system.l2.demand_hits::cpu.data               1299588                       # number of demand (read+write) hits
system.l2.demand_hits::total                  1299629                       # number of demand (read+write) hits
system.l2.overall_hits::cpu.inst                   41                       # number of overall hits
system.l2.overall_hits::cpu.data              1299588                       # number of overall hits
system.l2.overall_hits::total                 1299629                       # number of overall hits
system.l2.ReadExReq_misses::cpu.data           458703                       # number of ReadExReq misses
system.l2.ReadExReq_misses::total              458703                       # number of ReadExReq misses
system.l2.ReadCleanReq_misses::cpu.inst          1821                       # number of ReadCleanReq misses
system.l2.ReadCleanReq_misses::total             1821                       # number of ReadCleanReq misses
system.l2.ReadSharedReq_misses::cpu.data       668400                       # number of ReadSharedReq misses
system.l2.ReadSharedReq_misses::total          668400                       # number of ReadSharedReq misses
system.l2.demand_misses::cpu.inst                1821                       # number of demand (read+write) misses
system.l2.demand_misses::cpu.data             1127103                       # number of demand (read+write) misses
system.l2.demand_misses::total                1128924                       # number of demand (read+write) misses
system.l2.overall_misses::cpu.inst               1821                       # number of overall misses
system.l2.overall_misses::cpu.data            1127103                       # number of overall misses
system.l2.overall_misses::total               1128924                       # number of overall misses
system.l2.ReadExReq_miss_latency::cpu.data  42297754000                       # number of ReadExReq miss cycles
system.l2.ReadExReq_miss_latency::total   42297754000                       # number of ReadExReq miss cycles
system.l2.ReadCleanReq_miss_latency::cpu.inst    159127500                       # number of ReadCleanReq miss cycles
system.l2.ReadCleanReq_miss_latency::total    159127500                       # number of ReadCleanReq miss cycles
system.l2.ReadSharedReq_miss_latency::cpu.data  65243847500                       # number of ReadSharedReq miss cycles
system.l2.ReadSharedReq_miss_latency::total  65243847500                       # number of ReadSharedReq miss cycles
system.l2.demand_miss_latency::cpu.inst     159127500                       # number of demand (read+write) miss cycles
system.l2.demand_miss_latency::cpu.data  107541601500                       # number of demand (read+write) miss cycles
system.l2.demand_miss_latency::total     107700729000                       # number of demand (read+write) miss cycles
system.l2.overall_miss_latency::cpu.inst    159127500                       # number of overall miss cycles
system.l2.overall_miss_latency::cpu.data 107541601500                       # number of overall miss cycles
system.l2.overall_miss_latency::total    107700729000                       # number of overall miss cycles
system.l2.WritebackDirty_accesses::writebacks      1108164                       # number of WritebackDirty accesses(hits+misses)
system.l2.WritebackDirty_accesses::total      1108164                       # number of WritebackDirty accesses(hits+misses)
system.l2.WritebackClean_accesses::writebacks          858                       # number of WritebackClean accesses(hits+misses)
system.l2.WritebackClean_accesses::total          858                       # number of WritebackClean accesses(hits+misses)
system.l2.ReadExReq_accesses::cpu.data         711552                       # number of ReadExReq accesses(hits+misses)
system.l2.ReadExReq_accesses::total            711552                       # number of ReadExReq accesses(hits+misses)
system.l2.ReadCleanReq_accesses::cpu.inst         1862                       # number of ReadCleanReq accesses(hits+misses)
system.l2.ReadCleanReq_accesses::total           1862                       # number of ReadCleanReq accesses(hits+misses)
system.l2.ReadSharedReq_accesses::cpu.data      1715139                       # number of ReadSharedReq accesses(hits+misses)
system.l2.ReadSharedReq_accesses::total       1715139                       # number of ReadSharedReq accesses(hits+misses)
system.l2.demand_accesses::cpu.inst              1862                       # number of demand (read+write) accesses
system.l2.demand_accesses::cpu.data           2426691                       # number of demand (read+write) accesses
system.l2.demand_accesses::total              2428553                       # number of demand (read+write) accesses
system.l2.overall_accesses::cpu.inst             1862                       # number of overall (read+write) accesses
system.l2.overall_accesses::cpu.data          2426691                       # number of overall (read+write) accesses
system.l2.overall_accesses::total             2428553                       # number of overall (read+write) accesses
system.l2.ReadExReq_miss_rate::cpu.data      0.644651                       # miss rate for ReadExReq accesses
system.l2.ReadExReq_miss_rate::total         0.644651                       # miss rate for ReadExReq accesses
system.l2.ReadCleanReq_miss_rate::cpu.inst     0.977981                       # miss rate for ReadCleanReq accesses
system.l2.ReadCleanReq_miss_rate::total      0.977981                       # miss rate for ReadCleanReq accesses
system.l2.ReadSharedReq_miss_rate::cpu.data     0.389706                       # miss rate for ReadSharedReq accesses
system.l2.ReadSharedReq_miss_rate::total     0.389706                       # miss rate for ReadSharedReq accesses
system.l2.demand_miss_rate::cpu.inst         0.977981                       # miss rate for demand accesses
system.l2.demand_miss_rate::cpu.data         0.464461                       # miss rate for demand accesses
system.l2.demand_miss_rate::total            0.464855                       # miss rate for demand accesses
system.l2.overall_miss_rate::cpu.inst        0.977981                       # miss rate for overall accesses
system.l2.overall_miss_rate::cpu.data        0.464461                       # miss rate for overall accesses
system.l2.overall_miss_rate::total           0.464855                       # miss rate for overall accesses
system.l2.ReadExReq_avg_miss_latency::cpu.data 92211.635852                       # average ReadExReq miss latency
system.l2.ReadExReq_avg_miss_latency::total 92211.635852                       # average ReadExReq miss latency
system.l2.ReadCleanReq_avg_miss_latency::cpu.inst 87384.678748                       # average ReadCleanReq miss latency
system.l2.ReadCleanReq_avg_miss_latency::total 87384.678748                       # average ReadCleanReq miss latency
system.l2.ReadSharedReq_avg_miss_latency::cpu.data 97611.980102                       # average ReadSharedReq miss latency
system.l2.ReadSharedReq_avg_miss_latency::total 97611.980102                       # average ReadSharedReq miss latency
system.l2.demand_avg_miss_latency::cpu.inst 87384.678748                       # average overall miss latency
system.l2.demand_avg_miss_latency::cpu.data 95414.173771                       # average overall miss latency
system.l2.demand_avg_miss_latency::total 95401.221871                       # average overall miss latency
system.l2.overall_avg_miss_latency::cpu.inst 87384.678748                       # average overall miss latency
system.l2.overall_avg_miss_latency::cpu.data 95414.173771                       # average overall miss latency
system.l2.overall_avg_miss_latency::total 95401.221871                       # average overall miss latency
system.l2.blocked_cycles::no_mshrs                  0                       # number of cycles access was blocked
system.l2.blocked_cycles::no_targets                0                       # number of cycles access was blocked
system.l2.blocked::no_mshrs                         0                       # number of cycles access was blocked
system.l2.blocked::no_targets                       0                       # number of cycles access was blocked
system.l2.avg_blocked_cycles::no_mshrs            nan                       # average number of cycles each access was blocked
system.l2.avg_blocked_cycles::no_targets          nan                       # average number of cycles each access was blocked
system.l2.writebacks::writebacks               558131                       # number of writebacks
system.l2.writebacks::total                    558131                       # number of writebacks
system.l2.CleanEvict_mshr_misses::writebacks        94416                       # number of CleanEvict MSHR misses
system.l2.CleanEvict_mshr_misses::total         94416                       # number of CleanEvict MSHR misses
system.l2.ReadExReq_mshr_misses::cpu.data       458703                       # number of ReadExReq MSHR misses
system.l2.ReadExReq_mshr_misses::total         458703                       # number of ReadExReq MSHR misses
system.l2.ReadCleanReq_mshr_misses::cpu.inst         1821                       # number of ReadCleanReq MSHR misses
system.l2.ReadCleanReq_mshr_misses::total         1821                       # number of ReadCleanReq MSHR misses
system.l2.ReadSharedReq_mshr_misses::cpu.data       668400                       # number of ReadSharedReq MSHR misses
system.l2.ReadSharedReq_mshr_misses::total       668400                       # number of ReadSharedReq MSHR misses
system.l2.demand_mshr_misses::cpu.inst           1821                       # number of demand (read+write) MSHR misses
system.l2.demand_mshr_misses::cpu.data        1127103                       # number of demand (read+write) MSHR misses
system.l2.demand_mshr_misses::total           1128924                       # number of demand (read+write) MSHR misses
system.l2.overall_mshr_misses::cpu.inst          1821                       # number of overall MSHR misses
system.l2.overall_mshr_misses::cpu.data       1127103                       # number of overall MSHR misses
system.l2.overall_mshr_misses::total          1128924                       # number of overall MSHR misses
system.l2.ReadExReq_mshr_miss_latency::cpu.data  37710724000                       # number of ReadExReq MSHR miss cycles
system.l2.ReadExReq_mshr_miss_latency::total  37710724000                       # number of ReadExReq MSHR miss cycles
system.l2.ReadCleanReq_mshr_miss_latency::cpu.inst    140917500                       # number of ReadCleanReq MSHR miss cycles
system.l2.ReadCleanReq_mshr_miss_latency::total    140917500                       # number of ReadCleanReq MSHR miss cycles
system.l2.ReadSharedReq_mshr_miss_latency::cpu.data  58559847500                       # number of ReadSharedReq MSHR miss cycles
system.l2.ReadSharedReq_mshr_miss_latency::total  58559847500                       # number of ReadSharedReq MSHR miss cycles
system.l2.demand_mshr_miss_latency::cpu.inst    140917500                       # number of demand (read+write) MSHR miss cycles
system.l2.demand_mshr_miss_latency::cpu.data  96270571500                       # number of demand (read+write) MSHR miss cycles
system.l2.demand_mshr_miss_latency::total  96411489000                       # number of demand (read+write) MSHR miss cycles
system.l2.overall_mshr_miss_latency::cpu.inst    140917500                       # number of overall MSHR miss cycles
system.l2.overall_mshr_miss_latency::cpu.data  96270571500                       # number of overall MSHR miss cycles
system.l2.overall_mshr_miss_latency::total  96411489000                       # number of overall MSHR miss cycles
system.l2.CleanEvict_mshr_miss_rate::writebacks          inf                       # mshr miss rate for CleanEvict accesses
system.l2.CleanEvict_mshr_miss_rate::total          inf                       # mshr miss rate for CleanEvict accesses
system.l2.ReadExReq_mshr_miss_rate::cpu.data     0.644651                       # mshr miss rate for ReadExReq accesses
system.l2.ReadExReq_mshr_miss_rate::total     0.644651                       # mshr miss rate for ReadExReq accesses
system.l2.ReadCleanReq_mshr_miss_rate::cpu.inst     0.977981                       # mshr miss rate for ReadCleanReq accesses
system.l2.ReadCleanReq_mshr_miss_rate::total     0.977981                       # mshr miss rate for ReadCleanReq accesses
system.l2.ReadSharedReq_mshr_miss_rate::cpu.data     0.389706                       # mshr miss rate for ReadSharedReq accesses
system.l2.ReadSharedReq_mshr_miss_rate::total     0.389706                       # mshr miss rate for ReadSharedReq accesses
system.l2.demand_mshr_miss_rate::cpu.inst     0.977981                       # mshr miss rate for demand accesses
system.l2.demand_mshr_miss_rate::cpu.data     0.464461                       # mshr miss rate for demand accesses
system.l2.demand_mshr_miss_rate::total       0.464855                       # mshr miss rate for demand accesses
system.l2.overall_mshr_miss_rate::cpu.inst     0.977981                       # mshr miss rate for overall accesses
system.l2.overall_mshr_miss_rate::cpu.data     0.464461                       # mshr miss rate for overall accesses
system.l2.overall_mshr_miss_rate::total      0.464855                       # mshr miss rate for overall accesses
system.l2.ReadExReq_avg_mshr_miss_latency::cpu.data 82211.635852                       # average ReadExReq mshr miss latency
system.l2.ReadExReq_avg_mshr_miss_latency::total 82211.635852                       # average ReadExReq mshr miss latency
system.l2.ReadCleanReq_avg_mshr_miss_latency::cpu.inst 77384.678748                       # average ReadCleanReq mshr miss latency
system.l2.ReadCleanReq_avg_mshr_miss_latency::total 77384.678748                       # average ReadCleanReq mshr miss latency
system.l2.ReadSharedReq_avg_mshr_miss_latency::cpu.data 87611.980102                       # average ReadSharedReq mshr miss latency
system.l2.ReadSharedReq_avg_mshr_miss_latency::total 87611.980102                       # average ReadSharedReq mshr miss latency
system.l2.demand_avg_mshr_miss_latency::cpu.inst 77384.678748                       # average overall mshr miss latency
system.l2.demand_avg_mshr_miss_latency::cpu.data 85414.173771                       # average overall mshr miss latency
system.l2.demand_avg_mshr_miss_latency::total 85401.221871                       # average overall mshr miss latency
system.l2.overall_avg_mshr_miss_latency::cpu.inst 77384.678748                       # average overall mshr miss latency
system.l2.overall_avg_mshr_miss_latency::cpu.data 85414.173771                       # average overall mshr miss latency
system.l2.overall_avg_mshr_miss_latency::total 85401.221871                       # average overall mshr miss latency
system.membus.snoop_filter.tot_requests       2224136                       # Total number of requests made to the snoop filter.
system.membus.snoop_filter.hit_single_requests      1095212                       # Number of requests hitting in the snoop filter with a single holder of the requested data.
system.membus.snoop_filter.hit_multi_requests            0                       # Number of requests hitting in the snoop filter with multiple (>1) holders of the requested data.
system.membus.snoop_filter.tot_snoops               0                       # Total number of snoops made to the snoop filter.
system.membus.snoop_filter.hit_single_snoops            0                       # Number of snoops hitting in the snoop filter with a single holder of the requested data.
system.membus.snoop_filter.hit_multi_snoops            0                       # Number of snoops hitting in the snoop filter with multiple (>1) holders of the requested data.
system.membus.pwrStateResidencyTicks::UNDEFINED 1107008699500                       # Cumulative time (in ticks) in various power states
system.membus.trans_dist::ReadResp             670221                       # Transaction distribution
system.membus.trans_dist::WritebackDirty       558131                       # Transaction distribution
system.membus.trans_dist::CleanEvict           537081                       # Transaction distribution
system.membus.trans_dist::ReadExReq            458703                       # Transaction distribution
system.membus.trans_dist::ReadExResp           458703                       # Transaction distribution
system.membus.trans_dist::ReadSharedReq        670221                       # Transaction distribution
system.membus.pkt_count_system.l2.mem_side::system.mem_ctrls.port      3353060                       # Packet count per connected master and slave (bytes)
system.membus.pkt_count_system.l2.mem_side::total      3353060                       # Packet count per connected master and slave (bytes)
system.membus.pkt_count::total                3353060                       # Packet count per connected master and slave (bytes)
system.membus.pkt_size_system.l2.mem_side::system.mem_ctrls.port     53985760                       # Cumulative packet size per connected master and slave (bytes)
system.membus.pkt_size_system.l2.mem_side::total     53985760                       # Cumulative packet size per connected master and slave (bytes)
system.membus.pkt_size::total                53985760                       # Cumulative packet size per connected master and slave (bytes)
system.membus.snoops                                0                       # Total snoops (count)
system.membus.snoopTraffic                          0                       # Total snoop traffic (bytes)
system.membus.snoop_fanout::samples           1128924                       # Request fanout histogram
system.membus.snoop_fanout::mean                    0                       # Request fanout histogram
system.membus.snoop_fanout::stdev                   0                       # Request fanout histogram
system.membus.snoop_fanout::underflows              0      0.00%      0.00% # Request fanout histogram
system.membus.snoop_fanout::0                 1128924    100.00%    100.00% # Request fanout histogram
system.membus.snoop_fanout::1                       0      0.00%    100.00% # Request fanout histogram
system.membus.snoop_fanout::overflows               0      0.00%    100.00% # Request fanout histogram
system.membus.snoop_fanout::min_value               0                       # Request fanout histogram
system.membus.snoop_fanout::max_value               0                       # Request fanout histogram
system.membus.snoop_fanout::total             1128924                       # Request fanout histogram
system.membus.reqLayer2.occupancy          3340409500                       # Layer occupancy (ticks)
system.membus.reqLayer2.utilization               0.3                       # Layer utilization (%)
system.membus.respLayer1.occupancy         3836014000                       # Layer occupancy (ticks)
system.membus.respLayer1.utilization              0.3                       # Layer utilization (%)
system.tol2bus.snoop_filter.tot_requests      4852006                       # Total number of requests made to the snoop filter.
system.tol2bus.snoop_filter.hit_single_requests      2423453                       # Number of requests hitting in the snoop filter with a single holder of the requested data.
system.tol2bus.snoop_filter.hit_multi_requests            1                       # Number of requests hitting in the snoop filter with multiple (>1) holders of the requested data.
system.tol2bus.snoop_filter.tot_snoops         180102                       # Total number of snoops made to the snoop filter.
system.tol2bus.snoop_filter.hit_single_snoops       180102                       # Number of snoops hitting in the snoop filter with a single holder of the requested data.
system.tol2bus.snoop_filter.hit_multi_snoops            0                       # Number of snoops hitting in the snoop filter with multiple (>1) holders of the requested data.
system.tol2bus.pwrStateResidencyTicks::UNDEFINED 1107008699500                       # Cumulative time (in ticks) in various power states
system.tol2bus.trans_dist::ReadResp           1717001                       # Transaction distribution
system.tol2bus.trans_dist::WritebackDirty      1666295                       # Transaction distribution
system.tol2bus.trans_dist::WritebackClean          858                       # Transaction distribution
system.tol2bus.trans_dist::CleanEvict         1937198                       # Transaction distribution
system.tol2bus.trans_dist::ReadExReq           711552                       # Transaction distribution
system.tol2bus.trans_dist::ReadExResp          711552                       # Transaction distribution
system.tol2bus.trans_dist::ReadCleanReq          1862                       # Transaction distribution
system.tol2bus.trans_dist::ReadSharedReq      1715139                       # Transaction distribution
system.tol2bus.pkt_count_system.cpu.icache.mem_side::system.l2.cpu_side         4582                       # Packet count per connected master and slave (bytes)
system.tol2bus.pkt_count_system.cpu.dcache.mem_side::system.l2.cpu_side      7275977                       # Packet count per connected master and slave (bytes)
system.tol2bus.pkt_count::total               7280559                       # Packet count per connected master and slave (bytes)
system.tol2bus.pkt_size_system.cpu.icache.mem_side::system.l2.cpu_side        87040                       # Cumulative packet size per connected master and slave (bytes)
system.tol2bus.pkt_size_system.cpu.dcache.mem_side::system.l2.cpu_side    113115360                       # Cumulative packet size per connected master and slave (bytes)
system.tol2bus.pkt_size::total              113202400                       # Cumulative packet size per connected master and slave (bytes)
system.tol2bus.snoops                         1180898                       # Total snoops (count)
system.tol2bus.snoopTraffic                  17860192                       # Total snoop traffic (bytes)
system.tol2bus.snoop_fanout::samples          3609451                       # Request fanout histogram
system.tol2bus.snoop_fanout::mean            0.049898                       # Request fanout histogram
system.tol2bus.snoop_fanout::stdev           0.217733                       # Request fanout histogram
system.tol2bus.snoop_fanout::underflows             0      0.00%      0.00% # Request fanout histogram
system.tol2bus.snoop_fanout::0                3429348     95.01%     95.01% # Request fanout histogram
system.tol2bus.snoop_fanout::1                 180103      4.99%    100.00% # Request fanout histogram
system.tol2bus.snoop_fanout::2                      0      0.00%    100.00% # Request fanout histogram
system.tol2bus.snoop_fanout::3                      0      0.00%    100.00% # Request fanout histogram
system.tol2bus.snoop_fanout::4                      0      0.00%    100.00% # Request fanout histogram
system.tol2bus.snoop_fanout::overflows              0      0.00%    100.00% # Request fanout histogram
system.tol2bus.snoop_fanout::min_value              0                       # Request fanout histogram
system.tol2bus.snoop_fanout::max_value              1                       # Request fanout histogram
system.tol2bus.snoop_fanout::total            3609451                       # Request fanout histogram
system.tol2bus.reqLayer0.occupancy         2980514000                       # Layer occupancy (ticks)
system.tol2bus.reqLayer0.utilization              0.3                       # Layer utilization (%)
system.tol2bus.respLayer0.occupancy           1862000                       # Layer occupancy (ticks)
system.tol2bus.respLayer0.utilization             0.0                       # Layer utilization (%)
system.tol2bus.respLayer1.occupancy        2426691000                       # Layer occupancy (ticks)
system.tol2bus.respLayer1.utilization             0.2                       # Layer utilization (%)

---------- End Simulation Statistics   ----------
