
---------- Begin Simulation Statistics ----------
sim_seconds                                  2.414807                       # Number of seconds simulated
sim_ticks                                2414806552500                       # Number of ticks simulated
final_tick                               2414806552500                       # Number of ticks from beginning of simulation (restored from checkpoints and never reset)
sim_freq                                 1000000000000                       # Frequency of simulated ticks
host_inst_rate                                 452860                       # Simulator instruction rate (inst/s)
host_op_rate                                   745739                       # Simulator op (including micro ops) rate (op/s)
host_tick_rate                             2187136864                       # Simulator tick rate (ticks/s)
host_mem_usage                                 669104                       # Number of bytes of host memory used
host_seconds                                  1104.10                       # Real time elapsed on the host
sim_insts                                   500000000                       # Number of instructions simulated
sim_ops                                     823366692                       # Number of ops (including micro ops) simulated
system.voltage_domain.voltage                       1                       # Voltage in Volts
system.clk_domain.clock                          1000                       # Clock period in ticks
system.mem_ctrls.pwrStateResidencyTicks::UNDEFINED 2414806552500                       # Cumulative time (in ticks) in various power states
system.mem_ctrls.bytes_read::cpu.inst          121568                       # Number of bytes read from this memory
system.mem_ctrls.bytes_read::cpu.data       533388576                       # Number of bytes read from this memory
system.mem_ctrls.bytes_read::total          533510144                       # Number of bytes read from this memory
system.mem_ctrls.bytes_inst_read::cpu.inst       121568                       # Number of instructions bytes read from this memory
system.mem_ctrls.bytes_inst_read::total        121568                       # Number of instructions bytes read from this memory
system.mem_ctrls.bytes_written::writebacks    532035008                       # Number of bytes written to this memory
system.mem_ctrls.bytes_written::total       532035008                       # Number of bytes written to this memory
system.mem_ctrls.num_reads::cpu.inst             3799                       # Number of read requests responded to by this memory
system.mem_ctrls.num_reads::cpu.data         16668393                       # Number of read requests responded to by this memory
system.mem_ctrls.num_reads::total            16672192                       # Number of read requests responded to by this memory
system.mem_ctrls.num_writes::writebacks      16626094                       # Number of write requests responded to by this memory
system.mem_ctrls.num_writes::total           16626094                       # Number of write requests responded to by this memory
system.mem_ctrls.bw_read::cpu.inst              50343                       # Total read bandwidth from this memory (bytes/s)
system.mem_ctrls.bw_read::cpu.data          220882528                       # Total read bandwidth from this memory (bytes/s)
system.mem_ctrls.bw_read::total             220932871                       # Total read bandwidth from this memory (bytes/s)
system.mem_ctrls.bw_inst_read::cpu.inst         50343                       # Instruction read bandwidth from this memory (bytes/s)
system.mem_ctrls.bw_inst_read::total            50343                       # Instruction read bandwidth from this memory (bytes/s)
system.mem_ctrls.bw_write::writebacks       220321999                       # Write bandwidth from this memory (bytes/s)
system.mem_ctrls.bw_write::total            220321999                       # Write bandwidth from this memory (bytes/s)
system.mem_ctrls.bw_total::writebacks       220321999                       # Total bandwidth to/from this memory (bytes/s)
system.mem_ctrls.bw_total::cpu.inst             50343                       # Total bandwidth to/from this memory (bytes/s)
system.mem_ctrls.bw_total::cpu.data         220882528                       # Total bandwidth to/from this memory (bytes/s)
system.mem_ctrls.bw_total::total            441254870                       # Total bandwidth to/from this memory (bytes/s)
system.mem_ctrls.readReqs                    16672192                       # Number of read requests accepted
system.mem_ctrls.writeReqs                   16626094                       # Number of write requests accepted
system.mem_ctrls.readBursts                  16672192                       # Number of DRAM read bursts, including those serviced by the write queue
system.mem_ctrls.writeBursts                 16626094                       # Number of DRAM write bursts, including those merged in the write queue
system.mem_ctrls.bytesReadDRAM             1067018368                       # Total number of bytes read from DRAM
system.mem_ctrls.bytesReadWrQ                    1920                       # Total number of bytes read from write queue
system.mem_ctrls.bytesWritten               534606272                       # Total number of bytes written to DRAM
system.mem_ctrls.bytesReadSys               533510144                       # Total read bytes from the system interface side
system.mem_ctrls.bytesWrittenSys            532035008                       # Total written bytes from the system interface side
system.mem_ctrls.servicedByWrQ                     30                       # Number of DRAM read bursts serviced by the write queue
system.mem_ctrls.mergedWrBursts               8272839                       # Number of DRAM write bursts merged with an existing one
system.mem_ctrls.neitherReadNorWriteReqs            0                       # Number of requests that are neither read nor write
system.mem_ctrls.perBankRdBursts::0           1041804                       # Per bank write bursts
system.mem_ctrls.perBankRdBursts::1           1041457                       # Per bank write bursts
system.mem_ctrls.perBankRdBursts::2           1041700                       # Per bank write bursts
system.mem_ctrls.perBankRdBursts::3           1042315                       # Per bank write bursts
system.mem_ctrls.perBankRdBursts::4           1042205                       # Per bank write bursts
system.mem_ctrls.perBankRdBursts::5           1042266                       # Per bank write bursts
system.mem_ctrls.perBankRdBursts::6           1041788                       # Per bank write bursts
system.mem_ctrls.perBankRdBursts::7           1041816                       # Per bank write bursts
system.mem_ctrls.perBankRdBursts::8           1041293                       # Per bank write bursts
system.mem_ctrls.perBankRdBursts::9           1041718                       # Per bank write bursts
system.mem_ctrls.perBankRdBursts::10          1042020                       # Per bank write bursts
system.mem_ctrls.perBankRdBursts::11          1042591                       # Per bank write bursts
system.mem_ctrls.perBankRdBursts::12          1042500                       # Per bank write bursts
system.mem_ctrls.perBankRdBursts::13          1042335                       # Per bank write bursts
system.mem_ctrls.perBankRdBursts::14          1042084                       # Per bank write bursts
system.mem_ctrls.perBankRdBursts::15          1042270                       # Per bank write bursts
system.mem_ctrls.perBankWrBursts::0            521943                       # Per bank write bursts
system.mem_ctrls.perBankWrBursts::1            521731                       # Per bank write bursts
system.mem_ctrls.perBankWrBursts::2            521965                       # Per bank write bursts
system.mem_ctrls.perBankWrBursts::3            522342                       # Per bank write bursts
system.mem_ctrls.perBankWrBursts::4            522173                       # Per bank write bursts
system.mem_ctrls.perBankWrBursts::5            522289                       # Per bank write bursts
system.mem_ctrls.perBankWrBursts::6            521965                       # Per bank write bursts
system.mem_ctrls.perBankWrBursts::7            522053                       # Per bank write bursts
system.mem_ctrls.perBankWrBursts::8            521744                       # Per bank write bursts
system.mem_ctrls.perBankWrBursts::9            521957                       # Per bank write bursts
system.mem_ctrls.perBankWrBursts::10           522123                       # Per bank write bursts
system.mem_ctrls.perBankWrBursts::11           522227                       # Per bank write bursts
system.mem_ctrls.perBankWrBursts::12           522255                       # Per bank write bursts
system.mem_ctrls.perBankWrBursts::13           522257                       # Per bank write bursts
system.mem_ctrls.perBankWrBursts::14           522090                       # Per bank write bursts
system.mem_ctrls.perBankWrBursts::15           522109                       # Per bank write bursts
system.mem_ctrls.numRdRetry                         0                       # Number of times read queue was full causing retry
system.mem_ctrls.numWrRetry                         0                       # Number of times write queue was full causing retry
system.mem_ctrls.totGap                  2414781881500                       # Total gap between requests
system.mem_ctrls.readPktSize::0                     0                       # Read request sizes (log2)
system.mem_ctrls.readPktSize::1                     0                       # Read request sizes (log2)
system.mem_ctrls.readPktSize::2                     0                       # Read request sizes (log2)
system.mem_ctrls.readPktSize::3                     0                       # Read request sizes (log2)
system.mem_ctrls.readPktSize::4                     0                       # Read request sizes (log2)
system.mem_ctrls.readPktSize::5              16672192                       # Read request sizes (log2)
system.mem_ctrls.readPktSize::6                     0                       # Read request sizes (log2)
system.mem_ctrls.writePktSize::0                    0                       # Write request sizes (log2)
system.mem_ctrls.writePktSize::1                    0                       # Write request sizes (log2)
system.mem_ctrls.writePktSize::2                    0                       # Write request sizes (log2)
system.mem_ctrls.writePktSize::3                    0                       # Write request sizes (log2)
system.mem_ctrls.writePktSize::4                    0                       # Write request sizes (log2)
system.mem_ctrls.writePktSize::5             16626094                       # Write request sizes (log2)
system.mem_ctrls.writePktSize::6                    0                       # Write request sizes (log2)
system.mem_ctrls.rdQLenPdf::0                16672161                       # What read queue length does an incoming req see
system.mem_ctrls.rdQLenPdf::1                       1                       # What read queue length does an incoming req see
system.mem_ctrls.rdQLenPdf::2                       0                       # What read queue length does an incoming req see
system.mem_ctrls.rdQLenPdf::3                       0                       # What read queue length does an incoming req see
system.mem_ctrls.rdQLenPdf::4                       0                       # What read queue length does an incoming req see
system.mem_ctrls.rdQLenPdf::5                       0                       # What read queue length does an incoming req see
system.mem_ctrls.rdQLenPdf::6                       0                       # What read queue length does an incoming req see
system.mem_ctrls.rdQLenPdf::7                       0                       # What read queue length does an incoming req see
system.mem_ctrls.rdQLenPdf::8                       0                       # What read queue length does an incoming req see
system.mem_ctrls.rdQLenPdf::9                       0                       # What read queue length does an incoming req see
system.mem_ctrls.rdQLenPdf::10                      0                       # What read queue length does an incoming req see
system.mem_ctrls.rdQLenPdf::11                      0                       # What read queue length does an incoming req see
system.mem_ctrls.rdQLenPdf::12                      0                       # What read queue length does an incoming req see
system.mem_ctrls.rdQLenPdf::13                      0                       # What read queue length does an incoming req see
system.mem_ctrls.rdQLenPdf::14                      0                       # What read queue length does an incoming req see
system.mem_ctrls.rdQLenPdf::15                      0                       # What read queue length does an incoming req see
system.mem_ctrls.rdQLenPdf::16                      0                       # What read queue length does an incoming req see
system.mem_ctrls.rdQLenPdf::17                      0                       # What read queue length does an incoming req see
system.mem_ctrls.rdQLenPdf::18                      0                       # What read queue length does an incoming req see
system.mem_ctrls.rdQLenPdf::19                      0                       # What read queue length does an incoming req see
system.mem_ctrls.rdQLenPdf::20                      0                       # What read queue length does an incoming req see
system.mem_ctrls.rdQLenPdf::21                      0                       # What read queue length does an incoming req see
system.mem_ctrls.rdQLenPdf::22                      0                       # What read queue length does an incoming req see
system.mem_ctrls.rdQLenPdf::23                      0                       # What read queue length does an incoming req see
system.mem_ctrls.rdQLenPdf::24                      0                       # What read queue length does an incoming req see
system.mem_ctrls.rdQLenPdf::25                      0                       # What read queue length does an incoming req see
system.mem_ctrls.rdQLenPdf::26                      0                       # What read queue length does an incoming req see
system.mem_ctrls.rdQLenPdf::27                      0                       # What read queue length does an incoming req see
system.mem_ctrls.rdQLenPdf::28                      0                       # What read queue length does an incoming req see
system.mem_ctrls.rdQLenPdf::29                      0                       # What read queue length does an incoming req see
system.mem_ctrls.rdQLenPdf::30                      0                       # What read queue length does an incoming req see
system.mem_ctrls.rdQLenPdf::31                      0                       # What read queue length does an incoming req see
system.mem_ctrls.wrQLenPdf::0                       1                       # What write queue length does an incoming req see
system.mem_ctrls.wrQLenPdf::1                       1                       # What write queue length does an incoming req see
system.mem_ctrls.wrQLenPdf::2                       1                       # What write queue length does an incoming req see
system.mem_ctrls.wrQLenPdf::3                       1                       # What write queue length does an incoming req see
system.mem_ctrls.wrQLenPdf::4                       1                       # What write queue length does an incoming req see
system.mem_ctrls.wrQLenPdf::5                       1                       # What write queue length does an incoming req see
system.mem_ctrls.wrQLenPdf::6                       1                       # What write queue length does an incoming req see
system.mem_ctrls.wrQLenPdf::7                       1                       # What write queue length does an incoming req see
system.mem_ctrls.wrQLenPdf::8                       1                       # What write queue length does an incoming req see
system.mem_ctrls.wrQLenPdf::9                       1                       # What write queue length does an incoming req see
system.mem_ctrls.wrQLenPdf::10                      1                       # What write queue length does an incoming req see
system.mem_ctrls.wrQLenPdf::11                      1                       # What write queue length does an incoming req see
system.mem_ctrls.wrQLenPdf::12                      1                       # What write queue length does an incoming req see
system.mem_ctrls.wrQLenPdf::13                      1                       # What write queue length does an incoming req see
system.mem_ctrls.wrQLenPdf::14                      1                       # What write queue length does an incoming req see
system.mem_ctrls.wrQLenPdf::15                   3941                       # What write queue length does an incoming req see
system.mem_ctrls.wrQLenPdf::16                   4724                       # What write queue length does an incoming req see
system.mem_ctrls.wrQLenPdf::17                 521485                       # What write queue length does an incoming req see
system.mem_ctrls.wrQLenPdf::18                 521533                       # What write queue length does an incoming req see
system.mem_ctrls.wrQLenPdf::19                 521534                       # What write queue length does an incoming req see
system.mem_ctrls.wrQLenPdf::20                 521534                       # What write queue length does an incoming req see
system.mem_ctrls.wrQLenPdf::21                 521535                       # What write queue length does an incoming req see
system.mem_ctrls.wrQLenPdf::22                 521534                       # What write queue length does an incoming req see
system.mem_ctrls.wrQLenPdf::23                 521535                       # What write queue length does an incoming req see
system.mem_ctrls.wrQLenPdf::24                 521536                       # What write queue length does an incoming req see
system.mem_ctrls.wrQLenPdf::25                 521534                       # What write queue length does an incoming req see
system.mem_ctrls.wrQLenPdf::26                 521538                       # What write queue length does an incoming req see
system.mem_ctrls.wrQLenPdf::27                 521538                       # What write queue length does an incoming req see
system.mem_ctrls.wrQLenPdf::28                 521541                       # What write queue length does an incoming req see
system.mem_ctrls.wrQLenPdf::29                 521589                       # What write queue length does an incoming req see
system.mem_ctrls.wrQLenPdf::30                 521538                       # What write queue length does an incoming req see
system.mem_ctrls.wrQLenPdf::31                 521538                       # What write queue length does an incoming req see
system.mem_ctrls.wrQLenPdf::32                 521533                       # What write queue length does an incoming req see
system.mem_ctrls.wrQLenPdf::33                      0                       # What write queue length does an incoming req see
system.mem_ctrls.wrQLenPdf::34                      0                       # What write queue length does an incoming req see
system.mem_ctrls.wrQLenPdf::35                      0                       # What write queue length does an incoming req see
system.mem_ctrls.wrQLenPdf::36                      0                       # What write queue length does an incoming req see
system.mem_ctrls.wrQLenPdf::37                      0                       # What write queue length does an incoming req see
system.mem_ctrls.wrQLenPdf::38                      0                       # What write queue length does an incoming req see
system.mem_ctrls.wrQLenPdf::39                      0                       # What write queue length does an incoming req see
system.mem_ctrls.wrQLenPdf::40                      0                       # What write queue length does an incoming req see
system.mem_ctrls.wrQLenPdf::41                      0                       # What write queue length does an incoming req see
system.mem_ctrls.wrQLenPdf::42                      0                       # What write queue length does an incoming req see
system.mem_ctrls.wrQLenPdf::43                      0                       # What write queue length does an incoming req see
system.mem_ctrls.wrQLenPdf::44                      0                       # What write queue length does an incoming req see
system.mem_ctrls.wrQLenPdf::45                      0                       # What write queue length does an incoming req see
system.mem_ctrls.wrQLenPdf::46                      0                       # What write queue length does an incoming req see
system.mem_ctrls.wrQLenPdf::47                      0                       # What write queue length does an incoming req see
system.mem_ctrls.wrQLenPdf::48                      0                       # What write queue length does an incoming req see
system.mem_ctrls.wrQLenPdf::49                      0                       # What write queue length does an incoming req see
system.mem_ctrls.wrQLenPdf::50                      0                       # What write queue length does an incoming req see
system.mem_ctrls.wrQLenPdf::51                      0                       # What write queue length does an incoming req see
system.mem_ctrls.wrQLenPdf::52                      0                       # What write queue length does an incoming req see
system.mem_ctrls.wrQLenPdf::53                      0                       # What write queue length does an incoming req see
system.mem_ctrls.wrQLenPdf::54                      0                       # What write queue length does an incoming req see
system.mem_ctrls.wrQLenPdf::55                      0                       # What write queue length does an incoming req see
system.mem_ctrls.wrQLenPdf::56                      0                       # What write queue length does an incoming req see
system.mem_ctrls.wrQLenPdf::57                      0                       # What write queue length does an incoming req see
system.mem_ctrls.wrQLenPdf::58                      0                       # What write queue length does an incoming req see
system.mem_ctrls.wrQLenPdf::59                      0                       # What write queue length does an incoming req see
system.mem_ctrls.wrQLenPdf::60                      0                       # What write queue length does an incoming req see
system.mem_ctrls.wrQLenPdf::61                      0                       # What write queue length does an incoming req see
system.mem_ctrls.wrQLenPdf::62                      0                       # What write queue length does an incoming req see
system.mem_ctrls.wrQLenPdf::63                      0                       # What write queue length does an incoming req see
system.mem_ctrls.bytesPerActivate::samples      2017358                       # Bytes accessed per row activation
system.mem_ctrls.bytesPerActivate::mean    793.921872                       # Bytes accessed per row activation
system.mem_ctrls.bytesPerActivate::gmean   617.409398                       # Bytes accessed per row activation
system.mem_ctrls.bytesPerActivate::stdev   353.627821                       # Bytes accessed per row activation
system.mem_ctrls.bytesPerActivate::0-127       221857     11.00%     11.00% # Bytes accessed per row activation
system.mem_ctrls.bytesPerActivate::128-255        69996      3.47%     14.47% # Bytes accessed per row activation
system.mem_ctrls.bytesPerActivate::256-383        74415      3.69%     18.16% # Bytes accessed per row activation
system.mem_ctrls.bytesPerActivate::384-511        79807      3.96%     22.11% # Bytes accessed per row activation
system.mem_ctrls.bytesPerActivate::512-639        91846      4.55%     26.66% # Bytes accessed per row activation
system.mem_ctrls.bytesPerActivate::640-767        71152      3.53%     30.19% # Bytes accessed per row activation
system.mem_ctrls.bytesPerActivate::768-895        53162      2.64%     32.83% # Bytes accessed per row activation
system.mem_ctrls.bytesPerActivate::896-1023        89524      4.44%     37.26% # Bytes accessed per row activation
system.mem_ctrls.bytesPerActivate::1024-1151      1265599     62.74%    100.00% # Bytes accessed per row activation
system.mem_ctrls.bytesPerActivate::total      2017358                       # Bytes accessed per row activation
system.mem_ctrls.rdPerTurnAround::samples       521533                       # Reads before turning the bus around for writes
system.mem_ctrls.rdPerTurnAround::mean      31.967561                       # Reads before turning the bus around for writes
system.mem_ctrls.rdPerTurnAround::gmean     31.880263                       # Reads before turning the bus around for writes
system.mem_ctrls.rdPerTurnAround::stdev     27.298798                       # Reads before turning the bus around for writes
system.mem_ctrls.rdPerTurnAround::0-1023       521529    100.00%    100.00% # Reads before turning the bus around for writes
system.mem_ctrls.rdPerTurnAround::2048-3071            2      0.00%    100.00% # Reads before turning the bus around for writes
system.mem_ctrls.rdPerTurnAround::4096-5119            1      0.00%    100.00% # Reads before turning the bus around for writes
system.mem_ctrls.rdPerTurnAround::18432-19455            1      0.00%    100.00% # Reads before turning the bus around for writes
system.mem_ctrls.rdPerTurnAround::total        521533                       # Reads before turning the bus around for writes
system.mem_ctrls.wrPerTurnAround::samples       521533                       # Writes before turning the bus around for reads
system.mem_ctrls.wrPerTurnAround::mean      16.016672                       # Writes before turning the bus around for reads
system.mem_ctrls.wrPerTurnAround::gmean     16.015754                       # Writes before turning the bus around for reads
system.mem_ctrls.wrPerTurnAround::stdev      0.178182                       # Writes before turning the bus around for reads
system.mem_ctrls.wrPerTurnAround::16           516810     99.09%     99.09% # Writes before turning the bus around for reads
system.mem_ctrls.wrPerTurnAround::17              783      0.15%     99.24% # Writes before turning the bus around for reads
system.mem_ctrls.wrPerTurnAround::18             3908      0.75%     99.99% # Writes before turning the bus around for reads
system.mem_ctrls.wrPerTurnAround::19               32      0.01%    100.00% # Writes before turning the bus around for reads
system.mem_ctrls.wrPerTurnAround::total        521533                       # Writes before turning the bus around for reads
system.mem_ctrls.totQLat                 248076120750                       # Total ticks spent queuing
system.mem_ctrls.totMemAccLat            560679158250                       # Total ticks spent from burst creation until serviced by the DRAM
system.mem_ctrls.totBusLat                83360810000                       # Total ticks spent in databus transfers
system.mem_ctrls.avgQLat                     14879.66                       # Average queueing delay per DRAM burst
system.mem_ctrls.avgBusLat                    5000.00                       # Average bus latency per DRAM burst
system.mem_ctrls.avgMemAccLat                33629.66                       # Average memory access latency per DRAM burst
system.mem_ctrls.avgRdBW                       441.86                       # Average DRAM read bandwidth in MiByte/s
system.mem_ctrls.avgWrBW                       221.39                       # Average achieved write bandwidth in MiByte/s
system.mem_ctrls.avgRdBWSys                    220.93                       # Average system read bandwidth in MiByte/s
system.mem_ctrls.avgWrBWSys                    220.32                       # Average system write bandwidth in MiByte/s
system.mem_ctrls.peakBW                      12800.00                       # Theoretical peak bandwidth in MiByte/s
system.mem_ctrls.busUtil                         5.18                       # Data bus utilization in percentage
system.mem_ctrls.busUtilRead                     3.45                       # Data bus utilization in percentage for reads
system.mem_ctrls.busUtilWrite                    1.73                       # Data bus utilization in percentage for writes
system.mem_ctrls.avgRdQLen                       1.00                       # Average read queue length when enqueuing
system.mem_ctrls.avgWrQLen                      25.32                       # Average write queue length when enqueuing
system.mem_ctrls.readRowHits                 15305696                       # Number of row buffer hits during reads
system.mem_ctrls.writeRowHits                 7702331                       # Number of row buffer hits during writes
system.mem_ctrls.readRowHitRate                 91.80                       # Row buffer hit rate for reads
system.mem_ctrls.writeRowHitRate                92.21                       # Row buffer hit rate for writes
system.mem_ctrls.avgGap                      72519.71                       # Average gap between requests
system.mem_ctrls.pageHitRate                    91.94                       # Row buffer hit rate, read and write combined
system.mem_ctrls_0.actEnergy               7206994620                       # Energy for activate commands per rank (pJ)
system.mem_ctrls_0.preEnergy               3830608485                       # Energy for precharge commands per rank (pJ)
system.mem_ctrls_0.readEnergy             59514406140                       # Energy for read commands per rank (pJ)
system.mem_ctrls_0.writeEnergy            21801126420                       # Energy for write commands per rank (pJ)
system.mem_ctrls_0.refreshEnergy         114753902640.000031                       # Energy for refresh commands per rank (pJ)
system.mem_ctrls_0.actBackEnergy         148100143410                       # Energy for active background per rank (pJ)
system.mem_ctrls_0.preBackEnergy           8842367040                       # Energy for precharge background per rank (pJ)
system.mem_ctrls_0.actPowerDownEnergy    298420593570                       # Energy for active power-down per rank (pJ)
system.mem_ctrls_0.prePowerDownEnergy     95571473280                       # Energy for precharge power-down per rank (pJ)
system.mem_ctrls_0.selfRefreshEnergy     294720415995                       # Energy for self refresh per rank (pJ)
system.mem_ctrls_0.totalEnergy           1052784177600                       # Total energy per rank (pJ)
system.mem_ctrls_0.averagePower            435.970398                       # Core power per rank (mW)
system.mem_ctrls_0.totalIdleTime         2066941875750                       # Total Idle time Per DRAM Rank
system.mem_ctrls_0.memoryStateTime::IDLE  10044316000                       # Time in different power states
system.mem_ctrls_0.memoryStateTime::REF   48720292000                       # Time in different power states
system.mem_ctrls_0.memoryStateTime::SREF 1163634108750                       # Time in different power states
system.mem_ctrls_0.memoryStateTime::PRE_PDN 248884463750                       # Time in different power states
system.mem_ctrls_0.memoryStateTime::ACT  289083666000                       # Time in different power states
system.mem_ctrls_0.memoryStateTime::ACT_PDN 654439706000                       # Time in different power states
system.mem_ctrls_1.actEnergy               7196941500                       # Energy for activate commands per rank (pJ)
system.mem_ctrls_1.preEnergy               3825265125                       # Energy for precharge commands per rank (pJ)
system.mem_ctrls_1.readEnergy             59524830540                       # Energy for read commands per rank (pJ)
system.mem_ctrls_1.writeEnergy            21802697640                       # Energy for write commands per rank (pJ)
system.mem_ctrls_1.refreshEnergy         114372211200.000031                       # Energy for refresh commands per rank (pJ)
system.mem_ctrls_1.actBackEnergy         147909561060                       # Energy for active background per rank (pJ)
system.mem_ctrls_1.preBackEnergy           8823714240                       # Energy for precharge background per rank (pJ)
system.mem_ctrls_1.actPowerDownEnergy    297846857790                       # Energy for active power-down per rank (pJ)
system.mem_ctrls_1.prePowerDownEnergy     94888675680                       # Energy for precharge power-down per rank (pJ)
system.mem_ctrls_1.selfRefreshEnergy     295458986850                       # Energy for self refresh per rank (pJ)
system.mem_ctrls_1.totalEnergy           1051672686525                       # Total energy per rank (pJ)
system.mem_ctrls_1.averagePower            435.510117                       # Core power per rank (mW)
system.mem_ctrls_1.totalIdleTime         2067412570750                       # Total Idle time Per DRAM Rank
system.mem_ctrls_1.memoryStateTime::IDLE  10002611500                       # Time in different power states
system.mem_ctrls_1.memoryStateTime::REF   48557662000                       # Time in different power states
system.mem_ctrls_1.memoryStateTime::SREF 1167135324000                       # Time in different power states
system.mem_ctrls_1.memoryStateTime::PRE_PDN 247106340250                       # Time in different power states
system.mem_ctrls_1.memoryStateTime::ACT  288822614250                       # Time in different power states
system.mem_ctrls_1.memoryStateTime::ACT_PDN 653182000500                       # Time in different power states
system.pwrStateResidencyTicks::UNDEFINED 2414806552500                       # Cumulative time (in ticks) in various power states
system.cpu_voltage_domain.voltage                   1                       # Voltage in Volts
system.cpu_clk_domain.clock                       500                       # Clock period in ticks
system.cpu.dtb.walker.pwrStateResidencyTicks::UNDEFINED 2414806552500                       # Cumulative time (in ticks) in various power states
system.cpu.apic_clk_domain.clock                 8000                       # Clock period in ticks
system.cpu.interrupts.pwrStateResidencyTicks::UNDEFINED 2414806552500                       # Cumulative time (in ticks) in various power states
system.cpu.itb.walker.pwrStateResidencyTicks::UNDEFINED 2414806552500                       # Cumulative time (in ticks) in various power states
system.cpu.workload.num_syscalls                  196                       # Number of system calls
system.cpu.pwrStateResidencyTicks::ON    2414806552500                       # Cumulative time (in ticks) in various power states
system.cpu.numCycles                       4829613105                       # number of cpu cycles simulated
system.cpu.numWorkItemsStarted                      0                       # number of work items this cpu started
system.cpu.numWorkItemsCompleted                    0                       # number of work items this cpu completed
system.cpu.committedInsts                   500000000                       # Number of instructions committed
system.cpu.committedOps                     823366692                       # Number of ops (including micro ops) committed
system.cpu.num_int_alu_accesses             821415783                       # Number of integer alu accesses
system.cpu.num_fp_alu_accesses               66619246                       # Number of float alu accesses
system.cpu.num_func_calls                     5652773                       # number of times a function call or return occured
system.cpu.num_conditional_control_insts     57208853                       # number of instructions that are conditional controls
system.cpu.num_int_insts                    821415783                       # number of integer instructions
system.cpu.num_fp_insts                      66619246                       # number of float instructions
system.cpu.num_int_register_reads          1637209917                       # number of times the integer registers were read
system.cpu.num_int_register_writes          639871082                       # number of times the integer registers were written
system.cpu.num_fp_register_reads             66766836                       # number of times the floating registers were read
system.cpu.num_fp_register_writes              208042                       # number of times the floating registers were written
system.cpu.num_cc_register_reads            319714243                       # number of times the CC registers were read
system.cpu.num_cc_register_writes           287984022                       # number of times the CC registers were written
system.cpu.num_mem_refs                     271673939                       # number of memory refs
system.cpu.num_load_insts                   157213791                       # Number of load instructions
system.cpu.num_store_insts                  114460148                       # Number of store instructions
system.cpu.num_idle_cycles                          0                       # Number of idle cycles
system.cpu.num_busy_cycles                 4829613105                       # Number of busy cycles
system.cpu.not_idle_fraction                        1                       # Percentage of non-idle cycles
system.cpu.idle_fraction                            0                       # Percentage of idle cycles
system.cpu.Branches                          69678400                       # Number of branches fetched
system.cpu.op_class::No_OpClass                202234      0.02%      0.02% # Class of executed instruction
system.cpu.op_class::IntAlu                 550028817     66.80%     66.83% # Class of executed instruction
system.cpu.op_class::IntMult                   125092      0.02%     66.84% # Class of executed instruction
system.cpu.op_class::IntDiv                   1153479      0.14%     66.98% # Class of executed instruction
system.cpu.op_class::FloatAdd                  183131      0.02%     67.00% # Class of executed instruction
system.cpu.op_class::FloatCmp                       0      0.00%     67.00% # Class of executed instruction
system.cpu.op_class::FloatCvt                       0      0.00%     67.00% # Class of executed instruction
system.cpu.op_class::FloatMult                      0      0.00%     67.00% # Class of executed instruction
system.cpu.op_class::FloatDiv                       0      0.00%     67.00% # Class of executed instruction
system.cpu.op_class::FloatSqrt                      0      0.00%     67.00% # Class of executed instruction
system.cpu.op_class::SimdAdd                        0      0.00%     67.00% # Class of executed instruction
system.cpu.op_class::SimdAddAcc                     0      0.00%     67.00% # Class of executed instruction
system.cpu.op_class::SimdAlu                        0      0.00%     67.00% # Class of executed instruction
system.cpu.op_class::SimdCmp                        0      0.00%     67.00% # Class of executed instruction
system.cpu.op_class::SimdCvt                        0      0.00%     67.00% # Class of executed instruction
system.cpu.op_class::SimdMisc                       0      0.00%     67.00% # Class of executed instruction
system.cpu.op_class::SimdMult                       0      0.00%     67.00% # Class of executed instruction
system.cpu.op_class::SimdMultAcc                    0      0.00%     67.00% # Class of executed instruction
system.cpu.op_class::SimdShift                      0      0.00%     67.00% # Class of executed instruction
system.cpu.op_class::SimdShiftAcc                   0      0.00%     67.00% # Class of executed instruction
system.cpu.op_class::SimdSqrt                       0      0.00%     67.00% # Class of executed instruction
system.cpu.op_class::SimdFloatAdd                   0      0.00%     67.00% # Class of executed instruction
system.cpu.op_class::SimdFloatAlu                   0      0.00%     67.00% # Class of executed instruction
system.cpu.op_class::SimdFloatCmp                   0      0.00%     67.00% # Class of executed instruction
system.cpu.op_class::SimdFloatCvt                   0      0.00%     67.00% # Class of executed instruction
system.cpu.op_class::SimdFloatDiv                   0      0.00%     67.00% # Class of executed instruction
system.cpu.op_class::SimdFloatMisc                  0      0.00%     67.00% # Class of executed instruction
system.cpu.op_class::SimdFloatMult                  0      0.00%     67.00% # Class of executed instruction
system.cpu.op_class::SimdFloatMultAcc               0      0.00%     67.00% # Class of executed instruction
system.cpu.op_class::SimdFloatSqrt                  0      0.00%     67.00% # Class of executed instruction
system.cpu.op_class::MemRead                157213791     19.09%     86.10% # Class of executed instruction
system.cpu.op_class::MemWrite               114460148     13.90%    100.00% # Class of executed instruction
system.cpu.op_class::IprAccess                      0      0.00%    100.00% # Class of executed instruction
system.cpu.op_class::InstPrefetch                   0      0.00%    100.00% # Class of executed instruction
system.cpu.op_class::total                  823366692                       # Class of executed instruction
system.cpu.dcache.tags.pwrStateResidencyTicks::UNDEFINED 2414806552500                       # Cumulative time (in ticks) in various power states
system.cpu.dcache.tags.replacements          16835803                       # number of replacements
system.cpu.dcache.tags.tagsinuse          2047.379186                       # Cycle average of tags in use
system.cpu.dcache.tags.total_refs           254836705                       # Total number of references to valid blocks.
system.cpu.dcache.tags.sampled_refs          16837851                       # Sample count of references to valid blocks.
system.cpu.dcache.tags.avg_refs             15.134752                       # Average number of references to valid blocks.
system.cpu.dcache.tags.warmup_cycle        5770424500                       # Cycle when the warmup percentage was hit.
system.cpu.dcache.tags.occ_blocks::cpu.data  2047.379186                       # Average occupied blocks per requestor
system.cpu.dcache.tags.occ_percent::cpu.data     0.999697                       # Average percentage of cache occupancy
system.cpu.dcache.tags.occ_percent::total     0.999697                       # Average percentage of cache occupancy
system.cpu.dcache.tags.occ_task_id_blocks::1024         2048                       # Occupied blocks per task id
system.cpu.dcache.tags.age_task_id_blocks_1024::0            1                       # Occupied blocks per task id
system.cpu.dcache.tags.age_task_id_blocks_1024::1           48                       # Occupied blocks per task id
system.cpu.dcache.tags.age_task_id_blocks_1024::2          169                       # Occupied blocks per task id
system.cpu.dcache.tags.age_task_id_blocks_1024::3          794                       # Occupied blocks per task id
system.cpu.dcache.tags.age_task_id_blocks_1024::4         1036                       # Occupied blocks per task id
system.cpu.dcache.tags.occ_task_id_percent::1024            1                       # Percentage of cache occupancy per task id
system.cpu.dcache.tags.tag_accesses         560186963                       # Number of tag accesses
system.cpu.dcache.tags.data_accesses        560186963                       # Number of data accesses
system.cpu.dcache.pwrStateResidencyTicks::UNDEFINED 2414806552500                       # Cumulative time (in ticks) in various power states
system.cpu.dcache.ReadReq_hits::cpu.data    157049843                       # number of ReadReq hits
system.cpu.dcache.ReadReq_hits::total       157049843                       # number of ReadReq hits
system.cpu.dcache.WriteReq_hits::cpu.data     97786862                       # number of WriteReq hits
system.cpu.dcache.WriteReq_hits::total       97786862                       # number of WriteReq hits
system.cpu.dcache.demand_hits::cpu.data     254836705                       # number of demand (read+write) hits
system.cpu.dcache.demand_hits::total        254836705                       # number of demand (read+write) hits
system.cpu.dcache.overall_hits::cpu.data    254836705                       # number of overall hits
system.cpu.dcache.overall_hits::total       254836705                       # number of overall hits
system.cpu.dcache.ReadReq_misses::cpu.data       164552                       # number of ReadReq misses
system.cpu.dcache.ReadReq_misses::total        164552                       # number of ReadReq misses
system.cpu.dcache.WriteReq_misses::cpu.data     16673299                       # number of WriteReq misses
system.cpu.dcache.WriteReq_misses::total     16673299                       # number of WriteReq misses
system.cpu.dcache.demand_misses::cpu.data     16837851                       # number of demand (read+write) misses
system.cpu.dcache.demand_misses::total       16837851                       # number of demand (read+write) misses
system.cpu.dcache.overall_misses::cpu.data     16837851                       # number of overall misses
system.cpu.dcache.overall_misses::total      16837851                       # number of overall misses
system.cpu.dcache.ReadReq_miss_latency::cpu.data  26848735000                       # number of ReadReq miss cycles
system.cpu.dcache.ReadReq_miss_latency::total  26848735000                       # number of ReadReq miss cycles
system.cpu.dcache.WriteReq_miss_latency::cpu.data 1423612273500                       # number of WriteReq miss cycles
system.cpu.dcache.WriteReq_miss_latency::total 1423612273500                       # number of WriteReq miss cycles
system.cpu.dcache.demand_miss_latency::cpu.data 1450461008500                       # number of demand (read+write) miss cycles
system.cpu.dcache.demand_miss_latency::total 1450461008500                       # number of demand (read+write) miss cycles
system.cpu.dcache.overall_miss_latency::cpu.data 1450461008500                       # number of overall miss cycles
system.cpu.dcache.overall_miss_latency::total 1450461008500                       # number of overall miss cycles
system.cpu.dcache.ReadReq_accesses::cpu.data    157214395                       # number of ReadReq accesses(hits+misses)
system.cpu.dcache.ReadReq_accesses::total    157214395                       # number of ReadReq accesses(hits+misses)
system.cpu.dcache.WriteReq_accesses::cpu.data    114460161                       # number of WriteReq accesses(hits+misses)
system.cpu.dcache.WriteReq_accesses::total    114460161                       # number of WriteReq accesses(hits+misses)
system.cpu.dcache.demand_accesses::cpu.data    271674556                       # number of demand (read+write) accesses
system.cpu.dcache.demand_accesses::total    271674556                       # number of demand (read+write) accesses
system.cpu.dcache.overall_accesses::cpu.data    271674556                       # number of overall (read+write) accesses
system.cpu.dcache.overall_accesses::total    271674556                       # number of overall (read+write) accesses
system.cpu.dcache.ReadReq_miss_rate::cpu.data     0.001047                       # miss rate for ReadReq accesses
system.cpu.dcache.ReadReq_miss_rate::total     0.001047                       # miss rate for ReadReq accesses
system.cpu.dcache.WriteReq_miss_rate::cpu.data     0.145669                       # miss rate for WriteReq accesses
system.cpu.dcache.WriteReq_miss_rate::total     0.145669                       # miss rate for WriteReq accesses
system.cpu.dcache.demand_miss_rate::cpu.data     0.061978                       # miss rate for demand accesses
system.cpu.dcache.demand_miss_rate::total     0.061978                       # miss rate for demand accesses
system.cpu.dcache.overall_miss_rate::cpu.data     0.061978                       # miss rate for overall accesses
system.cpu.dcache.overall_miss_rate::total     0.061978                       # miss rate for overall accesses
system.cpu.dcache.ReadReq_avg_miss_latency::cpu.data 163162.617288                       # average ReadReq miss latency
system.cpu.dcache.ReadReq_avg_miss_latency::total 163162.617288                       # average ReadReq miss latency
system.cpu.dcache.WriteReq_avg_miss_latency::cpu.data 85382.759195                       # average WriteReq miss latency
system.cpu.dcache.WriteReq_avg_miss_latency::total 85382.759195                       # average WriteReq miss latency
system.cpu.dcache.demand_avg_miss_latency::cpu.data 86142.881802                       # average overall miss latency
system.cpu.dcache.demand_avg_miss_latency::total 86142.881802                       # average overall miss latency
system.cpu.dcache.overall_avg_miss_latency::cpu.data 86142.881802                       # average overall miss latency
system.cpu.dcache.overall_avg_miss_latency::total 86142.881802                       # average overall miss latency
system.cpu.dcache.blocked_cycles::no_mshrs            0                       # number of cycles access was blocked
system.cpu.dcache.blocked_cycles::no_targets            0                       # number of cycles access was blocked
system.cpu.dcache.blocked::no_mshrs                 0                       # number of cycles access was blocked
system.cpu.dcache.blocked::no_targets               0                       # number of cycles access was blocked
system.cpu.dcache.avg_blocked_cycles::no_mshrs          nan                       # average number of cycles each access was blocked
system.cpu.dcache.avg_blocked_cycles::no_targets          nan                       # average number of cycles each access was blocked
system.cpu.dcache.writebacks::writebacks     16772669                       # number of writebacks
system.cpu.dcache.writebacks::total          16772669                       # number of writebacks
system.cpu.dcache.ReadReq_mshr_misses::cpu.data       164552                       # number of ReadReq MSHR misses
system.cpu.dcache.ReadReq_mshr_misses::total       164552                       # number of ReadReq MSHR misses
system.cpu.dcache.WriteReq_mshr_misses::cpu.data     16673299                       # number of WriteReq MSHR misses
system.cpu.dcache.WriteReq_mshr_misses::total     16673299                       # number of WriteReq MSHR misses
system.cpu.dcache.demand_mshr_misses::cpu.data     16837851                       # number of demand (read+write) MSHR misses
system.cpu.dcache.demand_mshr_misses::total     16837851                       # number of demand (read+write) MSHR misses
system.cpu.dcache.overall_mshr_misses::cpu.data     16837851                       # number of overall MSHR misses
system.cpu.dcache.overall_mshr_misses::total     16837851                       # number of overall MSHR misses
system.cpu.dcache.ReadReq_mshr_miss_latency::cpu.data  26684183000                       # number of ReadReq MSHR miss cycles
system.cpu.dcache.ReadReq_mshr_miss_latency::total  26684183000                       # number of ReadReq MSHR miss cycles
system.cpu.dcache.WriteReq_mshr_miss_latency::cpu.data 1406938974500                       # number of WriteReq MSHR miss cycles
system.cpu.dcache.WriteReq_mshr_miss_latency::total 1406938974500                       # number of WriteReq MSHR miss cycles
system.cpu.dcache.demand_mshr_miss_latency::cpu.data 1433623157500                       # number of demand (read+write) MSHR miss cycles
system.cpu.dcache.demand_mshr_miss_latency::total 1433623157500                       # number of demand (read+write) MSHR miss cycles
system.cpu.dcache.overall_mshr_miss_latency::cpu.data 1433623157500                       # number of overall MSHR miss cycles
system.cpu.dcache.overall_mshr_miss_latency::total 1433623157500                       # number of overall MSHR miss cycles
system.cpu.dcache.ReadReq_mshr_miss_rate::cpu.data     0.001047                       # mshr miss rate for ReadReq accesses
system.cpu.dcache.ReadReq_mshr_miss_rate::total     0.001047                       # mshr miss rate for ReadReq accesses
system.cpu.dcache.WriteReq_mshr_miss_rate::cpu.data     0.145669                       # mshr miss rate for WriteReq accesses
system.cpu.dcache.WriteReq_mshr_miss_rate::total     0.145669                       # mshr miss rate for WriteReq accesses
system.cpu.dcache.demand_mshr_miss_rate::cpu.data     0.061978                       # mshr miss rate for demand accesses
system.cpu.dcache.demand_mshr_miss_rate::total     0.061978                       # mshr miss rate for demand accesses
system.cpu.dcache.overall_mshr_miss_rate::cpu.data     0.061978                       # mshr miss rate for overall accesses
system.cpu.dcache.overall_mshr_miss_rate::total     0.061978                       # mshr miss rate for overall accesses
system.cpu.dcache.ReadReq_avg_mshr_miss_latency::cpu.data 162162.617288                       # average ReadReq mshr miss latency
system.cpu.dcache.ReadReq_avg_mshr_miss_latency::total 162162.617288                       # average ReadReq mshr miss latency
system.cpu.dcache.WriteReq_avg_mshr_miss_latency::cpu.data 84382.759195                       # average WriteReq mshr miss latency
system.cpu.dcache.WriteReq_avg_mshr_miss_latency::total 84382.759195                       # average WriteReq mshr miss latency
system.cpu.dcache.demand_avg_mshr_miss_latency::cpu.data 85142.881802                       # average overall mshr miss latency
system.cpu.dcache.demand_avg_mshr_miss_latency::total 85142.881802                       # average overall mshr miss latency
system.cpu.dcache.overall_avg_mshr_miss_latency::cpu.data 85142.881802                       # average overall mshr miss latency
system.cpu.dcache.overall_avg_mshr_miss_latency::total 85142.881802                       # average overall mshr miss latency
system.cpu.dtb_walker_cache.tags.pwrStateResidencyTicks::UNDEFINED 2414806552500                       # Cumulative time (in ticks) in various power states
system.cpu.dtb_walker_cache.tags.replacements            0                       # number of replacements
system.cpu.dtb_walker_cache.tags.tagsinuse            0                       # Cycle average of tags in use
system.cpu.dtb_walker_cache.tags.total_refs            0                       # Total number of references to valid blocks.
system.cpu.dtb_walker_cache.tags.sampled_refs            0                       # Sample count of references to valid blocks.
system.cpu.dtb_walker_cache.tags.avg_refs          nan                       # Average number of references to valid blocks.
system.cpu.dtb_walker_cache.tags.warmup_cycle            0                       # Cycle when the warmup percentage was hit.
system.cpu.dtb_walker_cache.tags.tag_accesses            0                       # Number of tag accesses
system.cpu.dtb_walker_cache.tags.data_accesses            0                       # Number of data accesses
system.cpu.dtb_walker_cache.pwrStateResidencyTicks::UNDEFINED 2414806552500                       # Cumulative time (in ticks) in various power states
system.cpu.dtb_walker_cache.blocked_cycles::no_mshrs            0                       # number of cycles access was blocked
system.cpu.dtb_walker_cache.blocked_cycles::no_targets            0                       # number of cycles access was blocked
system.cpu.dtb_walker_cache.blocked::no_mshrs            0                       # number of cycles access was blocked
system.cpu.dtb_walker_cache.blocked::no_targets            0                       # number of cycles access was blocked
system.cpu.dtb_walker_cache.avg_blocked_cycles::no_mshrs          nan                       # average number of cycles each access was blocked
system.cpu.dtb_walker_cache.avg_blocked_cycles::no_targets          nan                       # average number of cycles each access was blocked
system.cpu.icache.tags.pwrStateResidencyTicks::UNDEFINED 2414806552500                       # Cumulative time (in ticks) in various power states
system.cpu.icache.tags.replacements           2809456                       # number of replacements
system.cpu.icache.tags.tagsinuse           834.246724                       # Cycle average of tags in use
system.cpu.icache.tags.total_refs           672543178                       # Total number of references to valid blocks.
system.cpu.icache.tags.sampled_refs           2810479                       # Sample count of references to valid blocks.
system.cpu.icache.tags.avg_refs            239.298418                       # Average number of references to valid blocks.
system.cpu.icache.tags.warmup_cycle                 0                       # Cycle when the warmup percentage was hit.
system.cpu.icache.tags.occ_blocks::cpu.inst   834.246724                       # Average occupied blocks per requestor
system.cpu.icache.tags.occ_percent::cpu.inst     0.814694                       # Average percentage of cache occupancy
system.cpu.icache.tags.occ_percent::total     0.814694                       # Average percentage of cache occupancy
system.cpu.icache.tags.occ_task_id_blocks::1024         1023                       # Occupied blocks per task id
system.cpu.icache.tags.age_task_id_blocks_1024::0           16                       # Occupied blocks per task id
system.cpu.icache.tags.age_task_id_blocks_1024::1          168                       # Occupied blocks per task id
system.cpu.icache.tags.age_task_id_blocks_1024::2          125                       # Occupied blocks per task id
system.cpu.icache.tags.age_task_id_blocks_1024::3           75                       # Occupied blocks per task id
system.cpu.icache.tags.age_task_id_blocks_1024::4          639                       # Occupied blocks per task id
system.cpu.icache.tags.occ_task_id_percent::1024     0.999023                       # Percentage of cache occupancy per task id
system.cpu.icache.tags.tag_accesses        1353517793                       # Number of tag accesses
system.cpu.icache.tags.data_accesses       1353517793                       # Number of data accesses
system.cpu.icache.pwrStateResidencyTicks::UNDEFINED 2414806552500                       # Cumulative time (in ticks) in various power states
system.cpu.icache.ReadReq_hits::cpu.inst    672543178                       # number of ReadReq hits
system.cpu.icache.ReadReq_hits::total       672543178                       # number of ReadReq hits
system.cpu.icache.demand_hits::cpu.inst     672543178                       # number of demand (read+write) hits
system.cpu.icache.demand_hits::total        672543178                       # number of demand (read+write) hits
system.cpu.icache.overall_hits::cpu.inst    672543178                       # number of overall hits
system.cpu.icache.overall_hits::total       672543178                       # number of overall hits
system.cpu.icache.ReadReq_misses::cpu.inst      2810479                       # number of ReadReq misses
system.cpu.icache.ReadReq_misses::total       2810479                       # number of ReadReq misses
system.cpu.icache.demand_misses::cpu.inst      2810479                       # number of demand (read+write) misses
system.cpu.icache.demand_misses::total        2810479                       # number of demand (read+write) misses
system.cpu.icache.overall_misses::cpu.inst      2810479                       # number of overall misses
system.cpu.icache.overall_misses::total       2810479                       # number of overall misses
system.cpu.icache.ReadReq_miss_latency::cpu.inst  36966094500                       # number of ReadReq miss cycles
system.cpu.icache.ReadReq_miss_latency::total  36966094500                       # number of ReadReq miss cycles
system.cpu.icache.demand_miss_latency::cpu.inst  36966094500                       # number of demand (read+write) miss cycles
system.cpu.icache.demand_miss_latency::total  36966094500                       # number of demand (read+write) miss cycles
system.cpu.icache.overall_miss_latency::cpu.inst  36966094500                       # number of overall miss cycles
system.cpu.icache.overall_miss_latency::total  36966094500                       # number of overall miss cycles
system.cpu.icache.ReadReq_accesses::cpu.inst    675353657                       # number of ReadReq accesses(hits+misses)
system.cpu.icache.ReadReq_accesses::total    675353657                       # number of ReadReq accesses(hits+misses)
system.cpu.icache.demand_accesses::cpu.inst    675353657                       # number of demand (read+write) accesses
system.cpu.icache.demand_accesses::total    675353657                       # number of demand (read+write) accesses
system.cpu.icache.overall_accesses::cpu.inst    675353657                       # number of overall (read+write) accesses
system.cpu.icache.overall_accesses::total    675353657                       # number of overall (read+write) accesses
system.cpu.icache.ReadReq_miss_rate::cpu.inst     0.004161                       # miss rate for ReadReq accesses
system.cpu.icache.ReadReq_miss_rate::total     0.004161                       # miss rate for ReadReq accesses
system.cpu.icache.demand_miss_rate::cpu.inst     0.004161                       # miss rate for demand accesses
system.cpu.icache.demand_miss_rate::total     0.004161                       # miss rate for demand accesses
system.cpu.icache.overall_miss_rate::cpu.inst     0.004161                       # miss rate for overall accesses
system.cpu.icache.overall_miss_rate::total     0.004161                       # miss rate for overall accesses
system.cpu.icache.ReadReq_avg_miss_latency::cpu.inst 13152.951685                       # average ReadReq miss latency
system.cpu.icache.ReadReq_avg_miss_latency::total 13152.951685                       # average ReadReq miss latency
system.cpu.icache.demand_avg_miss_latency::cpu.inst 13152.951685                       # average overall miss latency
system.cpu.icache.demand_avg_miss_latency::total 13152.951685                       # average overall miss latency
system.cpu.icache.overall_avg_miss_latency::cpu.inst 13152.951685                       # average overall miss latency
system.cpu.icache.overall_avg_miss_latency::total 13152.951685                       # average overall miss latency
system.cpu.icache.blocked_cycles::no_mshrs            0                       # number of cycles access was blocked
system.cpu.icache.blocked_cycles::no_targets            0                       # number of cycles access was blocked
system.cpu.icache.blocked::no_mshrs                 0                       # number of cycles access was blocked
system.cpu.icache.blocked::no_targets               0                       # number of cycles access was blocked
system.cpu.icache.avg_blocked_cycles::no_mshrs          nan                       # average number of cycles each access was blocked
system.cpu.icache.avg_blocked_cycles::no_targets          nan                       # average number of cycles each access was blocked
system.cpu.icache.writebacks::writebacks      2809456                       # number of writebacks
system.cpu.icache.writebacks::total           2809456                       # number of writebacks
system.cpu.icache.ReadReq_mshr_misses::cpu.inst      2810479                       # number of ReadReq MSHR misses
system.cpu.icache.ReadReq_mshr_misses::total      2810479                       # number of ReadReq MSHR misses
system.cpu.icache.demand_mshr_misses::cpu.inst      2810479                       # number of demand (read+write) MSHR misses
system.cpu.icache.demand_mshr_misses::total      2810479                       # number of demand (read+write) MSHR misses
system.cpu.icache.overall_mshr_misses::cpu.inst      2810479                       # number of overall MSHR misses
system.cpu.icache.overall_mshr_misses::total      2810479                       # number of overall MSHR misses
system.cpu.icache.ReadReq_mshr_miss_latency::cpu.inst  34155615500                       # number of ReadReq MSHR miss cycles
system.cpu.icache.ReadReq_mshr_miss_latency::total  34155615500                       # number of ReadReq MSHR miss cycles
system.cpu.icache.demand_mshr_miss_latency::cpu.inst  34155615500                       # number of demand (read+write) MSHR miss cycles
system.cpu.icache.demand_mshr_miss_latency::total  34155615500                       # number of demand (read+write) MSHR miss cycles
system.cpu.icache.overall_mshr_miss_latency::cpu.inst  34155615500                       # number of overall MSHR miss cycles
system.cpu.icache.overall_mshr_miss_latency::total  34155615500                       # number of overall MSHR miss cycles
system.cpu.icache.ReadReq_mshr_miss_rate::cpu.inst     0.004161                       # mshr miss rate for ReadReq accesses
system.cpu.icache.ReadReq_mshr_miss_rate::total     0.004161                       # mshr miss rate for ReadReq accesses
system.cpu.icache.demand_mshr_miss_rate::cpu.inst     0.004161                       # mshr miss rate for demand accesses
system.cpu.icache.demand_mshr_miss_rate::total     0.004161                       # mshr miss rate for demand accesses
system.cpu.icache.overall_mshr_miss_rate::cpu.inst     0.004161                       # mshr miss rate for overall accesses
system.cpu.icache.overall_mshr_miss_rate::total     0.004161                       # mshr miss rate for overall accesses
system.cpu.icache.ReadReq_avg_mshr_miss_latency::cpu.inst 12152.951685                       # average ReadReq mshr miss latency
system.cpu.icache.ReadReq_avg_mshr_miss_latency::total 12152.951685                       # average ReadReq mshr miss latency
system.cpu.icache.demand_avg_mshr_miss_latency::cpu.inst 12152.951685                       # average overall mshr miss latency
system.cpu.icache.demand_avg_mshr_miss_latency::total 12152.951685                       # average overall mshr miss latency
system.cpu.icache.overall_avg_mshr_miss_latency::cpu.inst 12152.951685                       # average overall mshr miss latency
system.cpu.icache.overall_avg_mshr_miss_latency::total 12152.951685                       # average overall mshr miss latency
system.cpu.itb_walker_cache.tags.pwrStateResidencyTicks::UNDEFINED 2414806552500                       # Cumulative time (in ticks) in various power states
system.cpu.itb_walker_cache.tags.replacements            0                       # number of replacements
system.cpu.itb_walker_cache.tags.tagsinuse            0                       # Cycle average of tags in use
system.cpu.itb_walker_cache.tags.total_refs            0                       # Total number of references to valid blocks.
system.cpu.itb_walker_cache.tags.sampled_refs            0                       # Sample count of references to valid blocks.
system.cpu.itb_walker_cache.tags.avg_refs          nan                       # Average number of references to valid blocks.
system.cpu.itb_walker_cache.tags.warmup_cycle            0                       # Cycle when the warmup percentage was hit.
system.cpu.itb_walker_cache.tags.tag_accesses            0                       # Number of tag accesses
system.cpu.itb_walker_cache.tags.data_accesses            0                       # Number of data accesses
system.cpu.itb_walker_cache.pwrStateResidencyTicks::UNDEFINED 2414806552500                       # Cumulative time (in ticks) in various power states
system.cpu.itb_walker_cache.blocked_cycles::no_mshrs            0                       # number of cycles access was blocked
system.cpu.itb_walker_cache.blocked_cycles::no_targets            0                       # number of cycles access was blocked
system.cpu.itb_walker_cache.blocked::no_mshrs            0                       # number of cycles access was blocked
system.cpu.itb_walker_cache.blocked::no_targets            0                       # number of cycles access was blocked
system.cpu.itb_walker_cache.avg_blocked_cycles::no_mshrs          nan                       # average number of cycles each access was blocked
system.cpu.itb_walker_cache.avg_blocked_cycles::no_targets          nan                       # average number of cycles each access was blocked
system.l2.tags.pwrStateResidencyTicks::UNDEFINED 2414806552500                       # Cumulative time (in ticks) in various power states
system.l2.tags.replacements                  16643220                       # number of replacements
system.l2.tags.tagsinuse                 32656.935202                       # Cycle average of tags in use
system.l2.tags.total_refs                    22616846                       # Total number of references to valid blocks.
system.l2.tags.sampled_refs                  16675988                       # Sample count of references to valid blocks.
system.l2.tags.avg_refs                      1.356252                       # Average number of references to valid blocks.
system.l2.tags.warmup_cycle               11058044000                       # Cycle when the warmup percentage was hit.
system.l2.tags.occ_blocks::writebacks      315.681784                       # Average occupied blocks per requestor
system.l2.tags.occ_blocks::cpu.inst        437.161730                       # Average occupied blocks per requestor
system.l2.tags.occ_blocks::cpu.data      31904.091688                       # Average occupied blocks per requestor
system.l2.tags.occ_percent::writebacks       0.009634                       # Average percentage of cache occupancy
system.l2.tags.occ_percent::cpu.inst         0.013341                       # Average percentage of cache occupancy
system.l2.tags.occ_percent::cpu.data         0.973636                       # Average percentage of cache occupancy
system.l2.tags.occ_percent::total            0.996611                       # Average percentage of cache occupancy
system.l2.tags.occ_task_id_blocks::1024         32768                       # Occupied blocks per task id
system.l2.tags.age_task_id_blocks_1024::1            7                       # Occupied blocks per task id
system.l2.tags.age_task_id_blocks_1024::2           92                       # Occupied blocks per task id
system.l2.tags.age_task_id_blocks_1024::3          910                       # Occupied blocks per task id
system.l2.tags.age_task_id_blocks_1024::4        31759                       # Occupied blocks per task id
system.l2.tags.occ_task_id_percent::1024            1                       # Percentage of cache occupancy per task id
system.l2.tags.tag_accesses                  95263166                       # Number of tag accesses
system.l2.tags.data_accesses                 95263166                       # Number of data accesses
system.l2.pwrStateResidencyTicks::UNDEFINED 2414806552500                       # Cumulative time (in ticks) in various power states
system.l2.WritebackDirty_hits::writebacks     16772669                       # number of WritebackDirty hits
system.l2.WritebackDirty_hits::total         16772669                       # number of WritebackDirty hits
system.l2.WritebackClean_hits::writebacks      2809456                       # number of WritebackClean hits
system.l2.WritebackClean_hits::total          2809456                       # number of WritebackClean hits
system.l2.ReadExReq_hits::cpu.data              85183                       # number of ReadExReq hits
system.l2.ReadExReq_hits::total                 85183                       # number of ReadExReq hits
system.l2.ReadCleanReq_hits::cpu.inst         2806680                       # number of ReadCleanReq hits
system.l2.ReadCleanReq_hits::total            2806680                       # number of ReadCleanReq hits
system.l2.ReadSharedReq_hits::cpu.data          84275                       # number of ReadSharedReq hits
system.l2.ReadSharedReq_hits::total             84275                       # number of ReadSharedReq hits
system.l2.demand_hits::cpu.inst               2806680                       # number of demand (read+write) hits
system.l2.demand_hits::cpu.data                169458                       # number of demand (read+write) hits
system.l2.demand_hits::total                  2976138                       # number of demand (read+write) hits
system.l2.overall_hits::cpu.inst              2806680                       # number of overall hits
system.l2.overall_hits::cpu.data               169458                       # number of overall hits
system.l2.overall_hits::total                 2976138                       # number of overall hits
system.l2.ReadExReq_misses::cpu.data         16588116                       # number of ReadExReq misses
system.l2.ReadExReq_misses::total            16588116                       # number of ReadExReq misses
system.l2.ReadCleanReq_misses::cpu.inst          3799                       # number of ReadCleanReq misses
system.l2.ReadCleanReq_misses::total             3799                       # number of ReadCleanReq misses
system.l2.ReadSharedReq_misses::cpu.data        80277                       # number of ReadSharedReq misses
system.l2.ReadSharedReq_misses::total           80277                       # number of ReadSharedReq misses
system.l2.demand_misses::cpu.inst                3799                       # number of demand (read+write) misses
system.l2.demand_misses::cpu.data            16668393                       # number of demand (read+write) misses
system.l2.demand_misses::total               16672192                       # number of demand (read+write) misses
system.l2.overall_misses::cpu.inst               3799                       # number of overall misses
system.l2.overall_misses::cpu.data           16668393                       # number of overall misses
system.l2.overall_misses::total              16672192                       # number of overall misses
system.l2.ReadExReq_miss_latency::cpu.data 1381034604500                       # number of ReadExReq miss cycles
system.l2.ReadExReq_miss_latency::total  1381034604500                       # number of ReadExReq miss cycles
system.l2.ReadCleanReq_miss_latency::cpu.inst    469757000                       # number of ReadCleanReq miss cycles
system.l2.ReadCleanReq_miss_latency::total    469757000                       # number of ReadCleanReq miss cycles
system.l2.ReadSharedReq_miss_latency::cpu.data  25552467000                       # number of ReadSharedReq miss cycles
system.l2.ReadSharedReq_miss_latency::total  25552467000                       # number of ReadSharedReq miss cycles
system.l2.demand_miss_latency::cpu.inst     469757000                       # number of demand (read+write) miss cycles
system.l2.demand_miss_latency::cpu.data  1406587071500                       # number of demand (read+write) miss cycles
system.l2.demand_miss_latency::total     1407056828500                       # number of demand (read+write) miss cycles
system.l2.overall_miss_latency::cpu.inst    469757000                       # number of overall miss cycles
system.l2.overall_miss_latency::cpu.data 1406587071500                       # number of overall miss cycles
system.l2.overall_miss_latency::total    1407056828500                       # number of overall miss cycles
system.l2.WritebackDirty_accesses::writebacks     16772669                       # number of WritebackDirty accesses(hits+misses)
system.l2.WritebackDirty_accesses::total     16772669                       # number of WritebackDirty accesses(hits+misses)
system.l2.WritebackClean_accesses::writebacks      2809456                       # number of WritebackClean accesses(hits+misses)
system.l2.WritebackClean_accesses::total      2809456                       # number of WritebackClean accesses(hits+misses)
system.l2.ReadExReq_accesses::cpu.data       16673299                       # number of ReadExReq accesses(hits+misses)
system.l2.ReadExReq_accesses::total          16673299                       # number of ReadExReq accesses(hits+misses)
system.l2.ReadCleanReq_accesses::cpu.inst      2810479                       # number of ReadCleanReq accesses(hits+misses)
system.l2.ReadCleanReq_accesses::total        2810479                       # number of ReadCleanReq accesses(hits+misses)
system.l2.ReadSharedReq_accesses::cpu.data       164552                       # number of ReadSharedReq accesses(hits+misses)
system.l2.ReadSharedReq_accesses::total        164552                       # number of ReadSharedReq accesses(hits+misses)
system.l2.demand_accesses::cpu.inst           2810479                       # number of demand (read+write) accesses
system.l2.demand_accesses::cpu.data          16837851                       # number of demand (read+write) accesses
system.l2.demand_accesses::total             19648330                       # number of demand (read+write) accesses
system.l2.overall_accesses::cpu.inst          2810479                       # number of overall (read+write) accesses
system.l2.overall_accesses::cpu.data         16837851                       # number of overall (read+write) accesses
system.l2.overall_accesses::total            19648330                       # number of overall (read+write) accesses
system.l2.ReadExReq_miss_rate::cpu.data      0.994891                       # miss rate for ReadExReq accesses
system.l2.ReadExReq_miss_rate::total         0.994891                       # miss rate for ReadExReq accesses
system.l2.ReadCleanReq_miss_rate::cpu.inst     0.001352                       # miss rate for ReadCleanReq accesses
system.l2.ReadCleanReq_miss_rate::total      0.001352                       # miss rate for ReadCleanReq accesses
system.l2.ReadSharedReq_miss_rate::cpu.data     0.487852                       # miss rate for ReadSharedReq accesses
system.l2.ReadSharedReq_miss_rate::total     0.487852                       # miss rate for ReadSharedReq accesses
system.l2.demand_miss_rate::cpu.inst         0.001352                       # miss rate for demand accesses
system.l2.demand_miss_rate::cpu.data         0.989936                       # miss rate for demand accesses
system.l2.demand_miss_rate::total            0.848530                       # miss rate for demand accesses
system.l2.overall_miss_rate::cpu.inst        0.001352                       # miss rate for overall accesses
system.l2.overall_miss_rate::cpu.data        0.989936                       # miss rate for overall accesses
system.l2.overall_miss_rate::total           0.848530                       # miss rate for overall accesses
system.l2.ReadExReq_avg_miss_latency::cpu.data 83254.457860                       # average ReadExReq miss latency
system.l2.ReadExReq_avg_miss_latency::total 83254.457860                       # average ReadExReq miss latency
system.l2.ReadCleanReq_avg_miss_latency::cpu.inst 123652.803369                       # average ReadCleanReq miss latency
system.l2.ReadCleanReq_avg_miss_latency::total 123652.803369                       # average ReadCleanReq miss latency
system.l2.ReadSharedReq_avg_miss_latency::cpu.data 318303.710901                       # average ReadSharedReq miss latency
system.l2.ReadSharedReq_avg_miss_latency::total 318303.710901                       # average ReadSharedReq miss latency
system.l2.demand_avg_miss_latency::cpu.inst 123652.803369                       # average overall miss latency
system.l2.demand_avg_miss_latency::cpu.data 84386.483538                       # average overall miss latency
system.l2.demand_avg_miss_latency::total 84395.430937                       # average overall miss latency
system.l2.overall_avg_miss_latency::cpu.inst 123652.803369                       # average overall miss latency
system.l2.overall_avg_miss_latency::cpu.data 84386.483538                       # average overall miss latency
system.l2.overall_avg_miss_latency::total 84395.430937                       # average overall miss latency
system.l2.blocked_cycles::no_mshrs                  0                       # number of cycles access was blocked
system.l2.blocked_cycles::no_targets                0                       # number of cycles access was blocked
system.l2.blocked::no_mshrs                         0                       # number of cycles access was blocked
system.l2.blocked::no_targets                       0                       # number of cycles access was blocked
system.l2.avg_blocked_cycles::no_mshrs            nan                       # average number of cycles each access was blocked
system.l2.avg_blocked_cycles::no_targets          nan                       # average number of cycles each access was blocked
system.l2.writebacks::writebacks             16626094                       # number of writebacks
system.l2.writebacks::total                  16626094                       # number of writebacks
system.l2.CleanEvict_mshr_misses::writebacks          755                       # number of CleanEvict MSHR misses
system.l2.CleanEvict_mshr_misses::total           755                       # number of CleanEvict MSHR misses
system.l2.ReadExReq_mshr_misses::cpu.data     16588116                       # number of ReadExReq MSHR misses
system.l2.ReadExReq_mshr_misses::total       16588116                       # number of ReadExReq MSHR misses
system.l2.ReadCleanReq_mshr_misses::cpu.inst         3799                       # number of ReadCleanReq MSHR misses
system.l2.ReadCleanReq_mshr_misses::total         3799                       # number of ReadCleanReq MSHR misses
system.l2.ReadSharedReq_mshr_misses::cpu.data        80277                       # number of ReadSharedReq MSHR misses
system.l2.ReadSharedReq_mshr_misses::total        80277                       # number of ReadSharedReq MSHR misses
system.l2.demand_mshr_misses::cpu.inst           3799                       # number of demand (read+write) MSHR misses
system.l2.demand_mshr_misses::cpu.data       16668393                       # number of demand (read+write) MSHR misses
system.l2.demand_mshr_misses::total          16672192                       # number of demand (read+write) MSHR misses
system.l2.overall_mshr_misses::cpu.inst          3799                       # number of overall MSHR misses
system.l2.overall_mshr_misses::cpu.data      16668393                       # number of overall MSHR misses
system.l2.overall_mshr_misses::total         16672192                       # number of overall MSHR misses
system.l2.ReadExReq_mshr_miss_latency::cpu.data 1215153444500                       # number of ReadExReq MSHR miss cycles
system.l2.ReadExReq_mshr_miss_latency::total 1215153444500                       # number of ReadExReq MSHR miss cycles
system.l2.ReadCleanReq_mshr_miss_latency::cpu.inst    431767000                       # number of ReadCleanReq MSHR miss cycles
system.l2.ReadCleanReq_mshr_miss_latency::total    431767000                       # number of ReadCleanReq MSHR miss cycles
system.l2.ReadSharedReq_mshr_miss_latency::cpu.data  24749697000                       # number of ReadSharedReq MSHR miss cycles
system.l2.ReadSharedReq_mshr_miss_latency::total  24749697000                       # number of ReadSharedReq MSHR miss cycles
system.l2.demand_mshr_miss_latency::cpu.inst    431767000                       # number of demand (read+write) MSHR miss cycles
system.l2.demand_mshr_miss_latency::cpu.data 1239903141500                       # number of demand (read+write) MSHR miss cycles
system.l2.demand_mshr_miss_latency::total 1240334908500                       # number of demand (read+write) MSHR miss cycles
system.l2.overall_mshr_miss_latency::cpu.inst    431767000                       # number of overall MSHR miss cycles
system.l2.overall_mshr_miss_latency::cpu.data 1239903141500                       # number of overall MSHR miss cycles
system.l2.overall_mshr_miss_latency::total 1240334908500                       # number of overall MSHR miss cycles
system.l2.CleanEvict_mshr_miss_rate::writebacks          inf                       # mshr miss rate for CleanEvict accesses
system.l2.CleanEvict_mshr_miss_rate::total          inf                       # mshr miss rate for CleanEvict accesses
system.l2.ReadExReq_mshr_miss_rate::cpu.data     0.994891                       # mshr miss rate for ReadExReq accesses
system.l2.ReadExReq_mshr_miss_rate::total     0.994891                       # mshr miss rate for ReadExReq accesses
system.l2.ReadCleanReq_mshr_miss_rate::cpu.inst     0.001352                       # mshr miss rate for ReadCleanReq accesses
system.l2.ReadCleanReq_mshr_miss_rate::total     0.001352                       # mshr miss rate for ReadCleanReq accesses
system.l2.ReadSharedReq_mshr_miss_rate::cpu.data     0.487852                       # mshr miss rate for ReadSharedReq accesses
system.l2.ReadSharedReq_mshr_miss_rate::total     0.487852                       # mshr miss rate for ReadSharedReq accesses
system.l2.demand_mshr_miss_rate::cpu.inst     0.001352                       # mshr miss rate for demand accesses
system.l2.demand_mshr_miss_rate::cpu.data     0.989936                       # mshr miss rate for demand accesses
system.l2.demand_mshr_miss_rate::total       0.848530                       # mshr miss rate for demand accesses
system.l2.overall_mshr_miss_rate::cpu.inst     0.001352                       # mshr miss rate for overall accesses
system.l2.overall_mshr_miss_rate::cpu.data     0.989936                       # mshr miss rate for overall accesses
system.l2.overall_mshr_miss_rate::total      0.848530                       # mshr miss rate for overall accesses
system.l2.ReadExReq_avg_mshr_miss_latency::cpu.data 73254.457860                       # average ReadExReq mshr miss latency
system.l2.ReadExReq_avg_mshr_miss_latency::total 73254.457860                       # average ReadExReq mshr miss latency
system.l2.ReadCleanReq_avg_mshr_miss_latency::cpu.inst 113652.803369                       # average ReadCleanReq mshr miss latency
system.l2.ReadCleanReq_avg_mshr_miss_latency::total 113652.803369                       # average ReadCleanReq mshr miss latency
system.l2.ReadSharedReq_avg_mshr_miss_latency::cpu.data 308303.710901                       # average ReadSharedReq mshr miss latency
system.l2.ReadSharedReq_avg_mshr_miss_latency::total 308303.710901                       # average ReadSharedReq mshr miss latency
system.l2.demand_avg_mshr_miss_latency::cpu.inst 113652.803369                       # average overall mshr miss latency
system.l2.demand_avg_mshr_miss_latency::cpu.data 74386.483538                       # average overall mshr miss latency
system.l2.demand_avg_mshr_miss_latency::total 74395.430937                       # average overall mshr miss latency
system.l2.overall_avg_mshr_miss_latency::cpu.inst 113652.803369                       # average overall mshr miss latency
system.l2.overall_avg_mshr_miss_latency::cpu.data 74386.483538                       # average overall mshr miss latency
system.l2.overall_avg_mshr_miss_latency::total 74395.430937                       # average overall mshr miss latency
system.membus.snoop_filter.tot_requests      33311241                       # Total number of requests made to the snoop filter.
system.membus.snoop_filter.hit_single_requests     16639049                       # Number of requests hitting in the snoop filter with a single holder of the requested data.
system.membus.snoop_filter.hit_multi_requests            0                       # Number of requests hitting in the snoop filter with multiple (>1) holders of the requested data.
system.membus.snoop_filter.tot_snoops               0                       # Total number of snoops made to the snoop filter.
system.membus.snoop_filter.hit_single_snoops            0                       # Number of snoops hitting in the snoop filter with a single holder of the requested data.
system.membus.snoop_filter.hit_multi_snoops            0                       # Number of snoops hitting in the snoop filter with multiple (>1) holders of the requested data.
system.membus.pwrStateResidencyTicks::UNDEFINED 2414806552500                       # Cumulative time (in ticks) in various power states
system.membus.trans_dist::ReadResp              84076                       # Transaction distribution
system.membus.trans_dist::WritebackDirty     16626094                       # Transaction distribution
system.membus.trans_dist::CleanEvict            12955                       # Transaction distribution
system.membus.trans_dist::ReadExReq          16588116                       # Transaction distribution
system.membus.trans_dist::ReadExResp         16588116                       # Transaction distribution
system.membus.trans_dist::ReadSharedReq         84076                       # Transaction distribution
system.membus.pkt_count_system.l2.mem_side::system.mem_ctrls.port     49983433                       # Packet count per connected master and slave (bytes)
system.membus.pkt_count_system.l2.mem_side::total     49983433                       # Packet count per connected master and slave (bytes)
system.membus.pkt_count::total               49983433                       # Packet count per connected master and slave (bytes)
system.membus.pkt_size_system.l2.mem_side::system.mem_ctrls.port   1065545152                       # Cumulative packet size per connected master and slave (bytes)
system.membus.pkt_size_system.l2.mem_side::total   1065545152                       # Cumulative packet size per connected master and slave (bytes)
system.membus.pkt_size::total              1065545152                       # Cumulative packet size per connected master and slave (bytes)
system.membus.snoops                                0                       # Total snoops (count)
system.membus.snoopTraffic                          0                       # Total snoop traffic (bytes)
system.membus.snoop_fanout::samples          16672192                       # Request fanout histogram
system.membus.snoop_fanout::mean                    0                       # Request fanout histogram
system.membus.snoop_fanout::stdev                   0                       # Request fanout histogram
system.membus.snoop_fanout::underflows              0      0.00%      0.00% # Request fanout histogram
system.membus.snoop_fanout::0                16672192    100.00%    100.00% # Request fanout histogram
system.membus.snoop_fanout::1                       0      0.00%    100.00% # Request fanout histogram
system.membus.snoop_fanout::overflows               0      0.00%    100.00% # Request fanout histogram
system.membus.snoop_fanout::min_value               0                       # Request fanout histogram
system.membus.snoop_fanout::max_value               0                       # Request fanout histogram
system.membus.snoop_fanout::total            16672192                       # Request fanout histogram
system.membus.reqLayer2.occupancy         66563453000                       # Layer occupancy (ticks)
system.membus.reqLayer2.utilization               2.8                       # Layer utilization (%)
system.membus.respLayer1.occupancy        54448556750                       # Layer occupancy (ticks)
system.membus.respLayer1.utilization              2.3                       # Layer utilization (%)
system.tol2bus.snoop_filter.tot_requests     39293589                       # Total number of requests made to the snoop filter.
system.tol2bus.snoop_filter.hit_single_requests     19645259                       # Number of requests hitting in the snoop filter with a single holder of the requested data.
system.tol2bus.snoop_filter.hit_multi_requests            0                       # Number of requests hitting in the snoop filter with multiple (>1) holders of the requested data.
system.tol2bus.snoop_filter.tot_snoops           4926                       # Total number of snoops made to the snoop filter.
system.tol2bus.snoop_filter.hit_single_snoops         4926                       # Number of snoops hitting in the snoop filter with a single holder of the requested data.
system.tol2bus.snoop_filter.hit_multi_snoops            0                       # Number of snoops hitting in the snoop filter with multiple (>1) holders of the requested data.
system.tol2bus.pwrStateResidencyTicks::UNDEFINED 2414806552500                       # Cumulative time (in ticks) in various power states
system.tol2bus.trans_dist::ReadResp           2975031                       # Transaction distribution
system.tol2bus.trans_dist::WritebackDirty     33398763                       # Transaction distribution
system.tol2bus.trans_dist::WritebackClean      2809456                       # Transaction distribution
system.tol2bus.trans_dist::CleanEvict           80260                       # Transaction distribution
system.tol2bus.trans_dist::ReadExReq         16673299                       # Transaction distribution
system.tol2bus.trans_dist::ReadExResp        16673299                       # Transaction distribution
system.tol2bus.trans_dist::ReadCleanReq       2810479                       # Transaction distribution
system.tol2bus.trans_dist::ReadSharedReq       164552                       # Transaction distribution
system.tol2bus.pkt_count_system.cpu.icache.mem_side::system.l2.cpu_side      8430414                       # Packet count per connected master and slave (bytes)
system.tol2bus.pkt_count_system.cpu.dcache.mem_side::system.l2.cpu_side     50511505                       # Packet count per connected master and slave (bytes)
system.tol2bus.pkt_count::total              58941919                       # Packet count per connected master and slave (bytes)
system.tol2bus.pkt_size_system.cpu.icache.mem_side::system.l2.cpu_side    179837920                       # Cumulative packet size per connected master and slave (bytes)
system.tol2bus.pkt_size_system.cpu.dcache.mem_side::system.l2.cpu_side   1075536640                       # Cumulative packet size per connected master and slave (bytes)
system.tol2bus.pkt_size::total             1255374560                       # Cumulative packet size per connected master and slave (bytes)
system.tol2bus.snoops                        16643220                       # Total snoops (count)
system.tol2bus.snoopTraffic                 532035008                       # Total snoop traffic (bytes)
system.tol2bus.snoop_fanout::samples         36291550                       # Request fanout histogram
system.tol2bus.snoop_fanout::mean            0.000136                       # Request fanout histogram
system.tol2bus.snoop_fanout::stdev           0.011650                       # Request fanout histogram
system.tol2bus.snoop_fanout::underflows             0      0.00%      0.00% # Request fanout histogram
system.tol2bus.snoop_fanout::0               36286624     99.99%     99.99% # Request fanout histogram
system.tol2bus.snoop_fanout::1                   4926      0.01%    100.00% # Request fanout histogram
system.tol2bus.snoop_fanout::2                      0      0.00%    100.00% # Request fanout histogram
system.tol2bus.snoop_fanout::3                      0      0.00%    100.00% # Request fanout histogram
system.tol2bus.snoop_fanout::4                      0      0.00%    100.00% # Request fanout histogram
system.tol2bus.snoop_fanout::overflows              0      0.00%    100.00% # Request fanout histogram
system.tol2bus.snoop_fanout::min_value              0                       # Request fanout histogram
system.tol2bus.snoop_fanout::max_value              1                       # Request fanout histogram
system.tol2bus.snoop_fanout::total           36291550                       # Request fanout histogram
system.tol2bus.reqLayer0.occupancy        29437857000                       # Layer occupancy (ticks)
system.tol2bus.reqLayer0.utilization              1.2                       # Layer utilization (%)
system.tol2bus.respLayer0.occupancy        2810479000                       # Layer occupancy (ticks)
system.tol2bus.respLayer0.utilization             0.1                       # Layer utilization (%)
system.tol2bus.respLayer1.occupancy       16837851000                       # Layer occupancy (ticks)
system.tol2bus.respLayer1.utilization             0.7                       # Layer utilization (%)

---------- End Simulation Statistics   ----------
