
---------- Begin Simulation Statistics ----------
sim_seconds                                  1.065476                       # Number of seconds simulated
sim_ticks                                1065475864500                       # Number of ticks simulated
final_tick                               1065475864500                       # Number of ticks from beginning of simulation (restored from checkpoints and never reset)
sim_freq                                 1000000000000                       # Frequency of simulated ticks
host_inst_rate                                 504194                       # Simulator instruction rate (inst/s)
host_op_rate                                   736578                       # Simulator op (including micro ops) rate (op/s)
host_tick_rate                             1074413272                       # Simulator tick rate (ticks/s)
host_mem_usage                                 655912                       # Number of bytes of host memory used
host_seconds                                   991.68                       # Real time elapsed on the host
sim_insts                                   500000001                       # Number of instructions simulated
sim_ops                                     730450447                       # Number of ops (including micro ops) simulated
system.voltage_domain.voltage                       1                       # Voltage in Volts
system.clk_domain.clock                          1000                       # Clock period in ticks
system.mem_ctrls.pwrStateResidencyTicks::UNDEFINED 1065475864500                       # Cumulative time (in ticks) in various power states
system.mem_ctrls.bytes_read::cpu.inst           63616                       # Number of bytes read from this memory
system.mem_ctrls.bytes_read::cpu.data        41380416                       # Number of bytes read from this memory
system.mem_ctrls.bytes_read::total           41444032                       # Number of bytes read from this memory
system.mem_ctrls.bytes_inst_read::cpu.inst        63616                       # Number of instructions bytes read from this memory
system.mem_ctrls.bytes_inst_read::total         63616                       # Number of instructions bytes read from this memory
system.mem_ctrls.bytes_written::writebacks     24993984                       # Number of bytes written to this memory
system.mem_ctrls.bytes_written::total        24993984                       # Number of bytes written to this memory
system.mem_ctrls.num_reads::cpu.inst              994                       # Number of read requests responded to by this memory
system.mem_ctrls.num_reads::cpu.data           646569                       # Number of read requests responded to by this memory
system.mem_ctrls.num_reads::total              647563                       # Number of read requests responded to by this memory
system.mem_ctrls.num_writes::writebacks        390531                       # Number of write requests responded to by this memory
system.mem_ctrls.num_writes::total             390531                       # Number of write requests responded to by this memory
system.mem_ctrls.bw_read::cpu.inst              59707                       # Total read bandwidth from this memory (bytes/s)
system.mem_ctrls.bw_read::cpu.data           38837497                       # Total read bandwidth from this memory (bytes/s)
system.mem_ctrls.bw_read::total              38897204                       # Total read bandwidth from this memory (bytes/s)
system.mem_ctrls.bw_inst_read::cpu.inst         59707                       # Instruction read bandwidth from this memory (bytes/s)
system.mem_ctrls.bw_inst_read::total            59707                       # Instruction read bandwidth from this memory (bytes/s)
system.mem_ctrls.bw_write::writebacks        23458048                       # Write bandwidth from this memory (bytes/s)
system.mem_ctrls.bw_write::total             23458048                       # Write bandwidth from this memory (bytes/s)
system.mem_ctrls.bw_total::writebacks        23458048                       # Total bandwidth to/from this memory (bytes/s)
system.mem_ctrls.bw_total::cpu.inst             59707                       # Total bandwidth to/from this memory (bytes/s)
system.mem_ctrls.bw_total::cpu.data          38837497                       # Total bandwidth to/from this memory (bytes/s)
system.mem_ctrls.bw_total::total             62355252                       # Total bandwidth to/from this memory (bytes/s)
system.mem_ctrls.readReqs                      647563                       # Number of read requests accepted
system.mem_ctrls.writeReqs                     390531                       # Number of write requests accepted
system.mem_ctrls.readBursts                    647563                       # Number of DRAM read bursts, including those serviced by the write queue
system.mem_ctrls.writeBursts                   390531                       # Number of DRAM write bursts, including those merged in the write queue
system.mem_ctrls.bytesReadDRAM               41389312                       # Total number of bytes read from DRAM
system.mem_ctrls.bytesReadWrQ                   54720                       # Total number of bytes read from write queue
system.mem_ctrls.bytesWritten                24992192                       # Total number of bytes written to DRAM
system.mem_ctrls.bytesReadSys                41444032                       # Total read bytes from the system interface side
system.mem_ctrls.bytesWrittenSys             24993984                       # Total written bytes from the system interface side
system.mem_ctrls.servicedByWrQ                    855                       # Number of DRAM read bursts serviced by the write queue
system.mem_ctrls.mergedWrBursts                     0                       # Number of DRAM write bursts merged with an existing one
system.mem_ctrls.neitherReadNorWriteReqs            0                       # Number of requests that are neither read nor write
system.mem_ctrls.perBankRdBursts::0             43003                       # Per bank write bursts
system.mem_ctrls.perBankRdBursts::1             41273                       # Per bank write bursts
system.mem_ctrls.perBankRdBursts::2             40223                       # Per bank write bursts
system.mem_ctrls.perBankRdBursts::3             39131                       # Per bank write bursts
system.mem_ctrls.perBankRdBursts::4             38285                       # Per bank write bursts
system.mem_ctrls.perBankRdBursts::5             38878                       # Per bank write bursts
system.mem_ctrls.perBankRdBursts::6             40026                       # Per bank write bursts
system.mem_ctrls.perBankRdBursts::7             39592                       # Per bank write bursts
system.mem_ctrls.perBankRdBursts::8             37543                       # Per bank write bursts
system.mem_ctrls.perBankRdBursts::9             37039                       # Per bank write bursts
system.mem_ctrls.perBankRdBursts::10            40408                       # Per bank write bursts
system.mem_ctrls.perBankRdBursts::11            41453                       # Per bank write bursts
system.mem_ctrls.perBankRdBursts::12            42085                       # Per bank write bursts
system.mem_ctrls.perBankRdBursts::13            42174                       # Per bank write bursts
system.mem_ctrls.perBankRdBursts::14            42680                       # Per bank write bursts
system.mem_ctrls.perBankRdBursts::15            42915                       # Per bank write bursts
system.mem_ctrls.perBankWrBursts::0             25968                       # Per bank write bursts
system.mem_ctrls.perBankWrBursts::1             24899                       # Per bank write bursts
system.mem_ctrls.perBankWrBursts::2             24436                       # Per bank write bursts
system.mem_ctrls.perBankWrBursts::3             23517                       # Per bank write bursts
system.mem_ctrls.perBankWrBursts::4             22783                       # Per bank write bursts
system.mem_ctrls.perBankWrBursts::5             22858                       # Per bank write bursts
system.mem_ctrls.perBankWrBursts::6             23477                       # Per bank write bursts
system.mem_ctrls.perBankWrBursts::7             23744                       # Per bank write bursts
system.mem_ctrls.perBankWrBursts::8             23153                       # Per bank write bursts
system.mem_ctrls.perBankWrBursts::9             22877                       # Per bank write bursts
system.mem_ctrls.perBankWrBursts::10            24576                       # Per bank write bursts
system.mem_ctrls.perBankWrBursts::11            25115                       # Per bank write bursts
system.mem_ctrls.perBankWrBursts::12            25186                       # Per bank write bursts
system.mem_ctrls.perBankWrBursts::13            25765                       # Per bank write bursts
system.mem_ctrls.perBankWrBursts::14            26160                       # Per bank write bursts
system.mem_ctrls.perBankWrBursts::15            25989                       # Per bank write bursts
system.mem_ctrls.numRdRetry                         0                       # Number of times read queue was full causing retry
system.mem_ctrls.numWrRetry                         0                       # Number of times write queue was full causing retry
system.mem_ctrls.totGap                  1065442513500                       # Total gap between requests
system.mem_ctrls.readPktSize::0                     0                       # Read request sizes (log2)
system.mem_ctrls.readPktSize::1                     0                       # Read request sizes (log2)
system.mem_ctrls.readPktSize::2                     0                       # Read request sizes (log2)
system.mem_ctrls.readPktSize::3                     0                       # Read request sizes (log2)
system.mem_ctrls.readPktSize::4                     0                       # Read request sizes (log2)
system.mem_ctrls.readPktSize::5                     0                       # Read request sizes (log2)
system.mem_ctrls.readPktSize::6                647563                       # Read request sizes (log2)
system.mem_ctrls.writePktSize::0                    0                       # Write request sizes (log2)
system.mem_ctrls.writePktSize::1                    0                       # Write request sizes (log2)
system.mem_ctrls.writePktSize::2                    0                       # Write request sizes (log2)
system.mem_ctrls.writePktSize::3                    0                       # Write request sizes (log2)
system.mem_ctrls.writePktSize::4                    0                       # Write request sizes (log2)
system.mem_ctrls.writePktSize::5                    0                       # Write request sizes (log2)
system.mem_ctrls.writePktSize::6               390531                       # Write request sizes (log2)
system.mem_ctrls.rdQLenPdf::0                  638108                       # What read queue length does an incoming req see
system.mem_ctrls.rdQLenPdf::1                    7997                       # What read queue length does an incoming req see
system.mem_ctrls.rdQLenPdf::2                     405                       # What read queue length does an incoming req see
system.mem_ctrls.rdQLenPdf::3                     198                       # What read queue length does an incoming req see
system.mem_ctrls.rdQLenPdf::4                       0                       # What read queue length does an incoming req see
system.mem_ctrls.rdQLenPdf::5                       0                       # What read queue length does an incoming req see
system.mem_ctrls.rdQLenPdf::6                       0                       # What read queue length does an incoming req see
system.mem_ctrls.rdQLenPdf::7                       0                       # What read queue length does an incoming req see
system.mem_ctrls.rdQLenPdf::8                       0                       # What read queue length does an incoming req see
system.mem_ctrls.rdQLenPdf::9                       0                       # What read queue length does an incoming req see
system.mem_ctrls.rdQLenPdf::10                      0                       # What read queue length does an incoming req see
system.mem_ctrls.rdQLenPdf::11                      0                       # What read queue length does an incoming req see
system.mem_ctrls.rdQLenPdf::12                      0                       # What read queue length does an incoming req see
system.mem_ctrls.rdQLenPdf::13                      0                       # What read queue length does an incoming req see
system.mem_ctrls.rdQLenPdf::14                      0                       # What read queue length does an incoming req see
system.mem_ctrls.rdQLenPdf::15                      0                       # What read queue length does an incoming req see
system.mem_ctrls.rdQLenPdf::16                      0                       # What read queue length does an incoming req see
system.mem_ctrls.rdQLenPdf::17                      0                       # What read queue length does an incoming req see
system.mem_ctrls.rdQLenPdf::18                      0                       # What read queue length does an incoming req see
system.mem_ctrls.rdQLenPdf::19                      0                       # What read queue length does an incoming req see
system.mem_ctrls.rdQLenPdf::20                      0                       # What read queue length does an incoming req see
system.mem_ctrls.rdQLenPdf::21                      0                       # What read queue length does an incoming req see
system.mem_ctrls.rdQLenPdf::22                      0                       # What read queue length does an incoming req see
system.mem_ctrls.rdQLenPdf::23                      0                       # What read queue length does an incoming req see
system.mem_ctrls.rdQLenPdf::24                      0                       # What read queue length does an incoming req see
system.mem_ctrls.rdQLenPdf::25                      0                       # What read queue length does an incoming req see
system.mem_ctrls.rdQLenPdf::26                      0                       # What read queue length does an incoming req see
system.mem_ctrls.rdQLenPdf::27                      0                       # What read queue length does an incoming req see
system.mem_ctrls.rdQLenPdf::28                      0                       # What read queue length does an incoming req see
system.mem_ctrls.rdQLenPdf::29                      0                       # What read queue length does an incoming req see
system.mem_ctrls.rdQLenPdf::30                      0                       # What read queue length does an incoming req see
system.mem_ctrls.rdQLenPdf::31                      0                       # What read queue length does an incoming req see
system.mem_ctrls.wrQLenPdf::0                       1                       # What write queue length does an incoming req see
system.mem_ctrls.wrQLenPdf::1                       1                       # What write queue length does an incoming req see
system.mem_ctrls.wrQLenPdf::2                       1                       # What write queue length does an incoming req see
system.mem_ctrls.wrQLenPdf::3                       1                       # What write queue length does an incoming req see
system.mem_ctrls.wrQLenPdf::4                       1                       # What write queue length does an incoming req see
system.mem_ctrls.wrQLenPdf::5                       1                       # What write queue length does an incoming req see
system.mem_ctrls.wrQLenPdf::6                       1                       # What write queue length does an incoming req see
system.mem_ctrls.wrQLenPdf::7                       1                       # What write queue length does an incoming req see
system.mem_ctrls.wrQLenPdf::8                       1                       # What write queue length does an incoming req see
system.mem_ctrls.wrQLenPdf::9                       1                       # What write queue length does an incoming req see
system.mem_ctrls.wrQLenPdf::10                      1                       # What write queue length does an incoming req see
system.mem_ctrls.wrQLenPdf::11                      1                       # What write queue length does an incoming req see
system.mem_ctrls.wrQLenPdf::12                      1                       # What write queue length does an incoming req see
system.mem_ctrls.wrQLenPdf::13                      1                       # What write queue length does an incoming req see
system.mem_ctrls.wrQLenPdf::14                      1                       # What write queue length does an incoming req see
system.mem_ctrls.wrQLenPdf::15                  13690                       # What write queue length does an incoming req see
system.mem_ctrls.wrQLenPdf::16                  14552                       # What write queue length does an incoming req see
system.mem_ctrls.wrQLenPdf::17                  22654                       # What write queue length does an incoming req see
system.mem_ctrls.wrQLenPdf::18                  22640                       # What write queue length does an incoming req see
system.mem_ctrls.wrQLenPdf::19                  22636                       # What write queue length does an incoming req see
system.mem_ctrls.wrQLenPdf::20                  22635                       # What write queue length does an incoming req see
system.mem_ctrls.wrQLenPdf::21                  22635                       # What write queue length does an incoming req see
system.mem_ctrls.wrQLenPdf::22                  22638                       # What write queue length does an incoming req see
system.mem_ctrls.wrQLenPdf::23                  22636                       # What write queue length does an incoming req see
system.mem_ctrls.wrQLenPdf::24                  22637                       # What write queue length does an incoming req see
system.mem_ctrls.wrQLenPdf::25                  22643                       # What write queue length does an incoming req see
system.mem_ctrls.wrQLenPdf::26                  22637                       # What write queue length does an incoming req see
system.mem_ctrls.wrQLenPdf::27                  22637                       # What write queue length does an incoming req see
system.mem_ctrls.wrQLenPdf::28                  22647                       # What write queue length does an incoming req see
system.mem_ctrls.wrQLenPdf::29                  22687                       # What write queue length does an incoming req see
system.mem_ctrls.wrQLenPdf::30                  22644                       # What write queue length does an incoming req see
system.mem_ctrls.wrQLenPdf::31                  22634                       # What write queue length does an incoming req see
system.mem_ctrls.wrQLenPdf::32                  22634                       # What write queue length does an incoming req see
system.mem_ctrls.wrQLenPdf::33                      0                       # What write queue length does an incoming req see
system.mem_ctrls.wrQLenPdf::34                      0                       # What write queue length does an incoming req see
system.mem_ctrls.wrQLenPdf::35                      0                       # What write queue length does an incoming req see
system.mem_ctrls.wrQLenPdf::36                      0                       # What write queue length does an incoming req see
system.mem_ctrls.wrQLenPdf::37                      0                       # What write queue length does an incoming req see
system.mem_ctrls.wrQLenPdf::38                      0                       # What write queue length does an incoming req see
system.mem_ctrls.wrQLenPdf::39                      0                       # What write queue length does an incoming req see
system.mem_ctrls.wrQLenPdf::40                      0                       # What write queue length does an incoming req see
system.mem_ctrls.wrQLenPdf::41                      0                       # What write queue length does an incoming req see
system.mem_ctrls.wrQLenPdf::42                      0                       # What write queue length does an incoming req see
system.mem_ctrls.wrQLenPdf::43                      0                       # What write queue length does an incoming req see
system.mem_ctrls.wrQLenPdf::44                      0                       # What write queue length does an incoming req see
system.mem_ctrls.wrQLenPdf::45                      0                       # What write queue length does an incoming req see
system.mem_ctrls.wrQLenPdf::46                      0                       # What write queue length does an incoming req see
system.mem_ctrls.wrQLenPdf::47                      0                       # What write queue length does an incoming req see
system.mem_ctrls.wrQLenPdf::48                      0                       # What write queue length does an incoming req see
system.mem_ctrls.wrQLenPdf::49                      0                       # What write queue length does an incoming req see
system.mem_ctrls.wrQLenPdf::50                      0                       # What write queue length does an incoming req see
system.mem_ctrls.wrQLenPdf::51                      0                       # What write queue length does an incoming req see
system.mem_ctrls.wrQLenPdf::52                      0                       # What write queue length does an incoming req see
system.mem_ctrls.wrQLenPdf::53                      0                       # What write queue length does an incoming req see
system.mem_ctrls.wrQLenPdf::54                      0                       # What write queue length does an incoming req see
system.mem_ctrls.wrQLenPdf::55                      0                       # What write queue length does an incoming req see
system.mem_ctrls.wrQLenPdf::56                      0                       # What write queue length does an incoming req see
system.mem_ctrls.wrQLenPdf::57                      0                       # What write queue length does an incoming req see
system.mem_ctrls.wrQLenPdf::58                      0                       # What write queue length does an incoming req see
system.mem_ctrls.wrQLenPdf::59                      0                       # What write queue length does an incoming req see
system.mem_ctrls.wrQLenPdf::60                      0                       # What write queue length does an incoming req see
system.mem_ctrls.wrQLenPdf::61                      0                       # What write queue length does an incoming req see
system.mem_ctrls.wrQLenPdf::62                      0                       # What write queue length does an incoming req see
system.mem_ctrls.wrQLenPdf::63                      0                       # What write queue length does an incoming req see
system.mem_ctrls.bytesPerActivate::samples       559358                       # Bytes accessed per row activation
system.mem_ctrls.bytesPerActivate::mean    118.674452                       # Bytes accessed per row activation
system.mem_ctrls.bytesPerActivate::gmean    88.704775                       # Bytes accessed per row activation
system.mem_ctrls.bytesPerActivate::stdev   148.680333                       # Bytes accessed per row activation
system.mem_ctrls.bytesPerActivate::0-127       401818     71.84%     71.84% # Bytes accessed per row activation
system.mem_ctrls.bytesPerActivate::128-255       106309     19.01%     90.84% # Bytes accessed per row activation
system.mem_ctrls.bytesPerActivate::256-383        22423      4.01%     94.85% # Bytes accessed per row activation
system.mem_ctrls.bytesPerActivate::384-511         7342      1.31%     96.16% # Bytes accessed per row activation
system.mem_ctrls.bytesPerActivate::512-639        10128      1.81%     97.97% # Bytes accessed per row activation
system.mem_ctrls.bytesPerActivate::640-767         1231      0.22%     98.19% # Bytes accessed per row activation
system.mem_ctrls.bytesPerActivate::768-895          891      0.16%     98.35% # Bytes accessed per row activation
system.mem_ctrls.bytesPerActivate::896-1023          999      0.18%     98.53% # Bytes accessed per row activation
system.mem_ctrls.bytesPerActivate::1024-1151         8217      1.47%    100.00% # Bytes accessed per row activation
system.mem_ctrls.bytesPerActivate::total       559358                       # Bytes accessed per row activation
system.mem_ctrls.rdPerTurnAround::samples        22634                       # Reads before turning the bus around for writes
system.mem_ctrls.rdPerTurnAround::mean      28.266413                       # Reads before turning the bus around for writes
system.mem_ctrls.rdPerTurnAround::gmean     23.635998                       # Reads before turning the bus around for writes
system.mem_ctrls.rdPerTurnAround::stdev    179.287264                       # Reads before turning the bus around for writes
system.mem_ctrls.rdPerTurnAround::0-1023        22623     99.95%     99.95% # Reads before turning the bus around for writes
system.mem_ctrls.rdPerTurnAround::1024-2047            6      0.03%     99.98% # Reads before turning the bus around for writes
system.mem_ctrls.rdPerTurnAround::4096-5119            2      0.01%     99.99% # Reads before turning the bus around for writes
system.mem_ctrls.rdPerTurnAround::5120-6143            1      0.00%     99.99% # Reads before turning the bus around for writes
system.mem_ctrls.rdPerTurnAround::8192-9215            1      0.00%    100.00% # Reads before turning the bus around for writes
system.mem_ctrls.rdPerTurnAround::23552-24575            1      0.00%    100.00% # Reads before turning the bus around for writes
system.mem_ctrls.rdPerTurnAround::total         22634                       # Reads before turning the bus around for writes
system.mem_ctrls.wrPerTurnAround::samples        22634                       # Writes before turning the bus around for reads
system.mem_ctrls.wrPerTurnAround::mean      17.252938                       # Writes before turning the bus around for reads
system.mem_ctrls.wrPerTurnAround::gmean     17.225977                       # Writes before turning the bus around for reads
system.mem_ctrls.wrPerTurnAround::stdev      0.955348                       # Writes before turning the bus around for reads
system.mem_ctrls.wrPerTurnAround::16             8078     35.69%     35.69% # Writes before turning the bus around for reads
system.mem_ctrls.wrPerTurnAround::17              865      3.82%     39.51% # Writes before turning the bus around for reads
system.mem_ctrls.wrPerTurnAround::18            13579     59.99%     99.51% # Writes before turning the bus around for reads
system.mem_ctrls.wrPerTurnAround::19              112      0.49%    100.00% # Writes before turning the bus around for reads
system.mem_ctrls.wrPerTurnAround::total         22634                       # Writes before turning the bus around for reads
system.mem_ctrls.totQLat                  21448363500                       # Total ticks spent queuing
system.mem_ctrls.totMemAccLat             33574138500                       # Total ticks spent from burst creation until serviced by the DRAM
system.mem_ctrls.totBusLat                 3233540000                       # Total ticks spent in databus transfers
system.mem_ctrls.avgQLat                     33165.45                       # Average queueing delay per DRAM burst
system.mem_ctrls.avgBusLat                    5000.00                       # Average bus latency per DRAM burst
system.mem_ctrls.avgMemAccLat                51915.45                       # Average memory access latency per DRAM burst
system.mem_ctrls.avgRdBW                        38.85                       # Average DRAM read bandwidth in MiByte/s
system.mem_ctrls.avgWrBW                        23.46                       # Average achieved write bandwidth in MiByte/s
system.mem_ctrls.avgRdBWSys                     38.90                       # Average system read bandwidth in MiByte/s
system.mem_ctrls.avgWrBWSys                     23.46                       # Average system write bandwidth in MiByte/s
system.mem_ctrls.peakBW                      12800.00                       # Theoretical peak bandwidth in MiByte/s
system.mem_ctrls.busUtil                         0.49                       # Data bus utilization in percentage
system.mem_ctrls.busUtilRead                     0.30                       # Data bus utilization in percentage for reads
system.mem_ctrls.busUtilWrite                    0.18                       # Data bus utilization in percentage for writes
system.mem_ctrls.avgRdQLen                       1.00                       # Average read queue length when enqueuing
system.mem_ctrls.avgWrQLen                      24.33                       # Average write queue length when enqueuing
system.mem_ctrls.readRowHits                   300334                       # Number of row buffer hits during reads
system.mem_ctrls.writeRowHits                  177519                       # Number of row buffer hits during writes
system.mem_ctrls.readRowHitRate                 46.44                       # Row buffer hit rate for reads
system.mem_ctrls.writeRowHitRate                45.46                       # Row buffer hit rate for writes
system.mem_ctrls.avgGap                    1026344.93                       # Average gap between requests
system.mem_ctrls.pageHitRate                    46.07                       # Row buffer hit rate, read and write combined
system.mem_ctrls_0.actEnergy               1975916460                       # Energy for activate commands per rank (pJ)
system.mem_ctrls_0.preEnergy               1050224505                       # Energy for precharge commands per rank (pJ)
system.mem_ctrls_0.readEnergy              2287734540                       # Energy for read commands per rank (pJ)
system.mem_ctrls_0.writeEnergy             1000580040                       # Energy for write commands per rank (pJ)
system.mem_ctrls_0.refreshEnergy         38526249840.000008                       # Energy for refresh commands per rank (pJ)
system.mem_ctrls_0.actBackEnergy          20672868870                       # Energy for active background per rank (pJ)
system.mem_ctrls_0.preBackEnergy           1588215360                       # Energy for precharge background per rank (pJ)
system.mem_ctrls_0.actPowerDownEnergy    116837649240                       # Energy for active power-down per rank (pJ)
system.mem_ctrls_0.prePowerDownEnergy     47293412640                       # Energy for precharge power-down per rank (pJ)
system.mem_ctrls_0.selfRefreshEnergy     157300795050                       # Energy for self refresh per rank (pJ)
system.mem_ctrls_0.totalEnergy           388545719745                       # Total energy per rank (pJ)
system.mem_ctrls_0.averagePower            364.668720                       # Core power per rank (mW)
system.mem_ctrls_0.totalIdleTime         1015959111500                       # Total Idle time Per DRAM Rank
system.mem_ctrls_0.memoryStateTime::IDLE   2510669250                       # Time in different power states
system.mem_ctrls_0.memoryStateTime::REF   16351372000                       # Time in different power states
system.mem_ctrls_0.memoryStateTime::SREF 636594952500                       # Time in different power states
system.mem_ctrls_0.memoryStateTime::PRE_PDN 123159369000                       # Time in different power states
system.mem_ctrls_0.memoryStateTime::ACT   30637480750                       # Time in different power states
system.mem_ctrls_0.memoryStateTime::ACT_PDN 256222021000                       # Time in different power states
system.mem_ctrls_1.actEnergy               2017899660                       # Energy for activate commands per rank (pJ)
system.mem_ctrls_1.preEnergy               1072539105                       # Energy for precharge commands per rank (pJ)
system.mem_ctrls_1.readEnergy              2329760580                       # Energy for read commands per rank (pJ)
system.mem_ctrls_1.writeEnergy             1037845620                       # Energy for write commands per rank (pJ)
system.mem_ctrls_1.refreshEnergy         38952195360.000008                       # Energy for refresh commands per rank (pJ)
system.mem_ctrls_1.actBackEnergy          20962314870                       # Energy for active background per rank (pJ)
system.mem_ctrls_1.preBackEnergy           1633370400                       # Energy for precharge background per rank (pJ)
system.mem_ctrls_1.actPowerDownEnergy    117073408650                       # Energy for active power-down per rank (pJ)
system.mem_ctrls_1.prePowerDownEnergy     47976120480                       # Energy for precharge power-down per rank (pJ)
system.mem_ctrls_1.selfRefreshEnergy     156748529235                       # Energy for self refresh per rank (pJ)
system.mem_ctrls_1.totalEnergy           389815872060                       # Total energy per rank (pJ)
system.mem_ctrls_1.averagePower            365.860818                       # Core power per rank (mW)
system.mem_ctrls_1.totalIdleTime         1015188298000                       # Total Idle time Per DRAM Rank
system.mem_ctrls_1.memoryStateTime::IDLE   2606776250                       # Time in different power states
system.mem_ctrls_1.memoryStateTime::REF   16533550000                       # Time in different power states
system.mem_ctrls_1.memoryStateTime::SREF 633548162250                       # Time in different power states
system.mem_ctrls_1.memoryStateTime::PRE_PDN 124937913750                       # Time in different power states
system.mem_ctrls_1.memoryStateTime::ACT   31110102250                       # Time in different power states
system.mem_ctrls_1.memoryStateTime::ACT_PDN 256739360000                       # Time in different power states
system.pwrStateResidencyTicks::UNDEFINED 1065475864500                       # Cumulative time (in ticks) in various power states
system.cpu_voltage_domain.voltage                   1                       # Voltage in Volts
system.cpu_clk_domain.clock                       500                       # Clock period in ticks
system.cpu.dtb.walker.pwrStateResidencyTicks::UNDEFINED 1065475864500                       # Cumulative time (in ticks) in various power states
system.cpu.apic_clk_domain.clock                 8000                       # Clock period in ticks
system.cpu.interrupts.pwrStateResidencyTicks::UNDEFINED 1065475864500                       # Cumulative time (in ticks) in various power states
system.cpu.itb.walker.pwrStateResidencyTicks::UNDEFINED 1065475864500                       # Cumulative time (in ticks) in various power states
system.cpu.workload.num_syscalls                   86                       # Number of system calls
system.cpu.pwrStateResidencyTicks::ON    1065475864500                       # Cumulative time (in ticks) in various power states
system.cpu.numCycles                       2130951729                       # number of cpu cycles simulated
system.cpu.numWorkItemsStarted                      0                       # number of work items this cpu started
system.cpu.numWorkItemsCompleted                    0                       # number of work items this cpu completed
system.cpu.committedInsts                   500000001                       # Number of instructions committed
system.cpu.committedOps                     730450447                       # Number of ops (including micro ops) committed
system.cpu.num_int_alu_accesses             729688906                       # Number of integer alu accesses
system.cpu.num_fp_alu_accesses                    663                       # Number of float alu accesses
system.cpu.num_func_calls                     1453961                       # number of times a function call or return occured
system.cpu.num_conditional_control_insts     31770496                       # number of instructions that are conditional controls
system.cpu.num_int_insts                    729688906                       # number of integer instructions
system.cpu.num_fp_insts                           663                       # number of float instructions
system.cpu.num_int_register_reads          1698743411                       # number of times the integer registers were read
system.cpu.num_int_register_writes          621892950                       # number of times the integer registers were written
system.cpu.num_fp_register_reads                 1009                       # number of times the floating registers were read
system.cpu.num_fp_register_writes                 429                       # number of times the floating registers were written
system.cpu.num_cc_register_reads            180840559                       # number of times the CC registers were read
system.cpu.num_cc_register_writes           276245121                       # number of times the CC registers were written
system.cpu.num_mem_refs                     295985461                       # number of memory refs
system.cpu.num_load_insts                   225946751                       # Number of load instructions
system.cpu.num_store_insts                   70038710                       # Number of store instructions
system.cpu.num_idle_cycles                          0                       # Number of idle cycles
system.cpu.num_busy_cycles                 2130951729                       # Number of busy cycles
system.cpu.not_idle_fraction                        1                       # Percentage of non-idle cycles
system.cpu.idle_fraction                            0                       # Percentage of idle cycles
system.cpu.Branches                          37843296                       # Number of branches fetched
system.cpu.op_class::No_OpClass                 94740      0.01%      0.01% # Class of executed instruction
system.cpu.op_class::IntAlu                 434349067     59.46%     59.48% # Class of executed instruction
system.cpu.op_class::IntMult                    20662      0.00%     59.48% # Class of executed instruction
system.cpu.op_class::IntDiv                       119      0.00%     59.48% # Class of executed instruction
system.cpu.op_class::FloatAdd                     398      0.00%     59.48% # Class of executed instruction
system.cpu.op_class::FloatCmp                       0      0.00%     59.48% # Class of executed instruction
system.cpu.op_class::FloatCvt                       0      0.00%     59.48% # Class of executed instruction
system.cpu.op_class::FloatMult                      0      0.00%     59.48% # Class of executed instruction
system.cpu.op_class::FloatDiv                       0      0.00%     59.48% # Class of executed instruction
system.cpu.op_class::FloatSqrt                      0      0.00%     59.48% # Class of executed instruction
system.cpu.op_class::SimdAdd                        0      0.00%     59.48% # Class of executed instruction
system.cpu.op_class::SimdAddAcc                     0      0.00%     59.48% # Class of executed instruction
system.cpu.op_class::SimdAlu                        0      0.00%     59.48% # Class of executed instruction
system.cpu.op_class::SimdCmp                        0      0.00%     59.48% # Class of executed instruction
system.cpu.op_class::SimdCvt                        0      0.00%     59.48% # Class of executed instruction
system.cpu.op_class::SimdMisc                       0      0.00%     59.48% # Class of executed instruction
system.cpu.op_class::SimdMult                       0      0.00%     59.48% # Class of executed instruction
system.cpu.op_class::SimdMultAcc                    0      0.00%     59.48% # Class of executed instruction
system.cpu.op_class::SimdShift                      0      0.00%     59.48% # Class of executed instruction
system.cpu.op_class::SimdShiftAcc                   0      0.00%     59.48% # Class of executed instruction
system.cpu.op_class::SimdSqrt                       0      0.00%     59.48% # Class of executed instruction
system.cpu.op_class::SimdFloatAdd                   0      0.00%     59.48% # Class of executed instruction
system.cpu.op_class::SimdFloatAlu                   0      0.00%     59.48% # Class of executed instruction
system.cpu.op_class::SimdFloatCmp                   0      0.00%     59.48% # Class of executed instruction
system.cpu.op_class::SimdFloatCvt                   0      0.00%     59.48% # Class of executed instruction
system.cpu.op_class::SimdFloatDiv                   0      0.00%     59.48% # Class of executed instruction
system.cpu.op_class::SimdFloatMisc                  0      0.00%     59.48% # Class of executed instruction
system.cpu.op_class::SimdFloatMult                  0      0.00%     59.48% # Class of executed instruction
system.cpu.op_class::SimdFloatMultAcc               0      0.00%     59.48% # Class of executed instruction
system.cpu.op_class::SimdFloatSqrt                  0      0.00%     59.48% # Class of executed instruction
system.cpu.op_class::MemRead                225946751     30.93%     90.41% # Class of executed instruction
system.cpu.op_class::MemWrite                70038710      9.59%    100.00% # Class of executed instruction
system.cpu.op_class::IprAccess                      0      0.00%    100.00% # Class of executed instruction
system.cpu.op_class::InstPrefetch                   0      0.00%    100.00% # Class of executed instruction
system.cpu.op_class::total                  730450447                       # Class of executed instruction
system.cpu.dcache.tags.pwrStateResidencyTicks::UNDEFINED 1065475864500                       # Cumulative time (in ticks) in various power states
system.cpu.dcache.tags.replacements           1964728                       # number of replacements
system.cpu.dcache.tags.tagsinuse          2041.844829                       # Cycle average of tags in use
system.cpu.dcache.tags.total_refs           294018693                       # Total number of references to valid blocks.
system.cpu.dcache.tags.sampled_refs           1966776                       # Sample count of references to valid blocks.
system.cpu.dcache.tags.avg_refs            149.492720                       # Average number of references to valid blocks.
system.cpu.dcache.tags.warmup_cycle        3757350500                       # Cycle when the warmup percentage was hit.
system.cpu.dcache.tags.occ_blocks::cpu.data  2041.844829                       # Average occupied blocks per requestor
system.cpu.dcache.tags.occ_percent::cpu.data     0.996995                       # Average percentage of cache occupancy
system.cpu.dcache.tags.occ_percent::total     0.996995                       # Average percentage of cache occupancy
system.cpu.dcache.tags.occ_task_id_blocks::1024         2048                       # Occupied blocks per task id
system.cpu.dcache.tags.age_task_id_blocks_1024::1            2                       # Occupied blocks per task id
system.cpu.dcache.tags.age_task_id_blocks_1024::2           16                       # Occupied blocks per task id
system.cpu.dcache.tags.age_task_id_blocks_1024::3         1557                       # Occupied blocks per task id
system.cpu.dcache.tags.age_task_id_blocks_1024::4          473                       # Occupied blocks per task id
system.cpu.dcache.tags.occ_task_id_percent::1024            1                       # Percentage of cache occupancy per task id
system.cpu.dcache.tags.tag_accesses        1185908652                       # Number of tag accesses
system.cpu.dcache.tags.data_accesses       1185908652                       # Number of data accesses
system.cpu.dcache.pwrStateResidencyTicks::UNDEFINED 1065475864500                       # Cumulative time (in ticks) in various power states
system.cpu.dcache.ReadReq_hits::cpu.data    224555942                       # number of ReadReq hits
system.cpu.dcache.ReadReq_hits::total       224555942                       # number of ReadReq hits
system.cpu.dcache.WriteReq_hits::cpu.data     69462751                       # number of WriteReq hits
system.cpu.dcache.WriteReq_hits::total       69462751                       # number of WriteReq hits
system.cpu.dcache.demand_hits::cpu.data     294018693                       # number of demand (read+write) hits
system.cpu.dcache.demand_hits::total        294018693                       # number of demand (read+write) hits
system.cpu.dcache.overall_hits::cpu.data    294018693                       # number of overall hits
system.cpu.dcache.overall_hits::total       294018693                       # number of overall hits
system.cpu.dcache.ReadReq_misses::cpu.data      1374432                       # number of ReadReq misses
system.cpu.dcache.ReadReq_misses::total       1374432                       # number of ReadReq misses
system.cpu.dcache.WriteReq_misses::cpu.data       575960                       # number of WriteReq misses
system.cpu.dcache.WriteReq_misses::total       575960                       # number of WriteReq misses
system.cpu.dcache.SoftPFReq_misses::cpu.data        16384                       # number of SoftPFReq misses
system.cpu.dcache.SoftPFReq_misses::total        16384                       # number of SoftPFReq misses
system.cpu.dcache.demand_misses::cpu.data      1950392                       # number of demand (read+write) misses
system.cpu.dcache.demand_misses::total        1950392                       # number of demand (read+write) misses
system.cpu.dcache.overall_misses::cpu.data      1966776                       # number of overall misses
system.cpu.dcache.overall_misses::total       1966776                       # number of overall misses
system.cpu.dcache.ReadReq_miss_latency::cpu.data  47515705500                       # number of ReadReq miss cycles
system.cpu.dcache.ReadReq_miss_latency::total  47515705500                       # number of ReadReq miss cycles
system.cpu.dcache.WriteReq_miss_latency::cpu.data  36288843500                       # number of WriteReq miss cycles
system.cpu.dcache.WriteReq_miss_latency::total  36288843500                       # number of WriteReq miss cycles
system.cpu.dcache.demand_miss_latency::cpu.data  83804549000                       # number of demand (read+write) miss cycles
system.cpu.dcache.demand_miss_latency::total  83804549000                       # number of demand (read+write) miss cycles
system.cpu.dcache.overall_miss_latency::cpu.data  83804549000                       # number of overall miss cycles
system.cpu.dcache.overall_miss_latency::total  83804549000                       # number of overall miss cycles
system.cpu.dcache.ReadReq_accesses::cpu.data    225930374                       # number of ReadReq accesses(hits+misses)
system.cpu.dcache.ReadReq_accesses::total    225930374                       # number of ReadReq accesses(hits+misses)
system.cpu.dcache.WriteReq_accesses::cpu.data     70038711                       # number of WriteReq accesses(hits+misses)
system.cpu.dcache.WriteReq_accesses::total     70038711                       # number of WriteReq accesses(hits+misses)
system.cpu.dcache.SoftPFReq_accesses::cpu.data        16384                       # number of SoftPFReq accesses(hits+misses)
system.cpu.dcache.SoftPFReq_accesses::total        16384                       # number of SoftPFReq accesses(hits+misses)
system.cpu.dcache.demand_accesses::cpu.data    295969085                       # number of demand (read+write) accesses
system.cpu.dcache.demand_accesses::total    295969085                       # number of demand (read+write) accesses
system.cpu.dcache.overall_accesses::cpu.data    295985469                       # number of overall (read+write) accesses
system.cpu.dcache.overall_accesses::total    295985469                       # number of overall (read+write) accesses
system.cpu.dcache.ReadReq_miss_rate::cpu.data     0.006083                       # miss rate for ReadReq accesses
system.cpu.dcache.ReadReq_miss_rate::total     0.006083                       # miss rate for ReadReq accesses
system.cpu.dcache.WriteReq_miss_rate::cpu.data     0.008223                       # miss rate for WriteReq accesses
system.cpu.dcache.WriteReq_miss_rate::total     0.008223                       # miss rate for WriteReq accesses
system.cpu.dcache.SoftPFReq_miss_rate::cpu.data            1                       # miss rate for SoftPFReq accesses
system.cpu.dcache.SoftPFReq_miss_rate::total            1                       # miss rate for SoftPFReq accesses
system.cpu.dcache.demand_miss_rate::cpu.data     0.006590                       # miss rate for demand accesses
system.cpu.dcache.demand_miss_rate::total     0.006590                       # miss rate for demand accesses
system.cpu.dcache.overall_miss_rate::cpu.data     0.006645                       # miss rate for overall accesses
system.cpu.dcache.overall_miss_rate::total     0.006645                       # miss rate for overall accesses
system.cpu.dcache.ReadReq_avg_miss_latency::cpu.data 34571.157758                       # average ReadReq miss latency
system.cpu.dcache.ReadReq_avg_miss_latency::total 34571.157758                       # average ReadReq miss latency
system.cpu.dcache.WriteReq_avg_miss_latency::cpu.data 63005.839815                       # average WriteReq miss latency
system.cpu.dcache.WriteReq_avg_miss_latency::total 63005.839815                       # average WriteReq miss latency
system.cpu.dcache.demand_avg_miss_latency::cpu.data 42968.054114                       # average overall miss latency
system.cpu.dcache.demand_avg_miss_latency::total 42968.054114                       # average overall miss latency
system.cpu.dcache.overall_avg_miss_latency::cpu.data 42610.113709                       # average overall miss latency
system.cpu.dcache.overall_avg_miss_latency::total 42610.113709                       # average overall miss latency
system.cpu.dcache.blocked_cycles::no_mshrs       301091                       # number of cycles access was blocked
system.cpu.dcache.blocked_cycles::no_targets            0                       # number of cycles access was blocked
system.cpu.dcache.blocked::no_mshrs              5138                       # number of cycles access was blocked
system.cpu.dcache.blocked::no_targets               0                       # number of cycles access was blocked
system.cpu.dcache.avg_blocked_cycles::no_mshrs    58.600817                       # average number of cycles each access was blocked
system.cpu.dcache.avg_blocked_cycles::no_targets          nan                       # average number of cycles each access was blocked
system.cpu.dcache.writebacks::writebacks       912552                       # number of writebacks
system.cpu.dcache.writebacks::total            912552                       # number of writebacks
system.cpu.dcache.ReadReq_mshr_misses::cpu.data      1374432                       # number of ReadReq MSHR misses
system.cpu.dcache.ReadReq_mshr_misses::total      1374432                       # number of ReadReq MSHR misses
system.cpu.dcache.WriteReq_mshr_misses::cpu.data       575960                       # number of WriteReq MSHR misses
system.cpu.dcache.WriteReq_mshr_misses::total       575960                       # number of WriteReq MSHR misses
system.cpu.dcache.SoftPFReq_mshr_misses::cpu.data        16384                       # number of SoftPFReq MSHR misses
system.cpu.dcache.SoftPFReq_mshr_misses::total        16384                       # number of SoftPFReq MSHR misses
system.cpu.dcache.demand_mshr_misses::cpu.data      1950392                       # number of demand (read+write) MSHR misses
system.cpu.dcache.demand_mshr_misses::total      1950392                       # number of demand (read+write) MSHR misses
system.cpu.dcache.overall_mshr_misses::cpu.data      1966776                       # number of overall MSHR misses
system.cpu.dcache.overall_mshr_misses::total      1966776                       # number of overall MSHR misses
system.cpu.dcache.ReadReq_mshr_miss_latency::cpu.data  46141273500                       # number of ReadReq MSHR miss cycles
system.cpu.dcache.ReadReq_mshr_miss_latency::total  46141273500                       # number of ReadReq MSHR miss cycles
system.cpu.dcache.WriteReq_mshr_miss_latency::cpu.data  35712883500                       # number of WriteReq MSHR miss cycles
system.cpu.dcache.WriteReq_mshr_miss_latency::total  35712883500                       # number of WriteReq MSHR miss cycles
system.cpu.dcache.SoftPFReq_mshr_miss_latency::cpu.data   1410199996                       # number of SoftPFReq MSHR miss cycles
system.cpu.dcache.SoftPFReq_mshr_miss_latency::total   1410199996                       # number of SoftPFReq MSHR miss cycles
system.cpu.dcache.demand_mshr_miss_latency::cpu.data  81854157000                       # number of demand (read+write) MSHR miss cycles
system.cpu.dcache.demand_mshr_miss_latency::total  81854157000                       # number of demand (read+write) MSHR miss cycles
system.cpu.dcache.overall_mshr_miss_latency::cpu.data  83264356996                       # number of overall MSHR miss cycles
system.cpu.dcache.overall_mshr_miss_latency::total  83264356996                       # number of overall MSHR miss cycles
system.cpu.dcache.ReadReq_mshr_miss_rate::cpu.data     0.006083                       # mshr miss rate for ReadReq accesses
system.cpu.dcache.ReadReq_mshr_miss_rate::total     0.006083                       # mshr miss rate for ReadReq accesses
system.cpu.dcache.WriteReq_mshr_miss_rate::cpu.data     0.008223                       # mshr miss rate for WriteReq accesses
system.cpu.dcache.WriteReq_mshr_miss_rate::total     0.008223                       # mshr miss rate for WriteReq accesses
system.cpu.dcache.SoftPFReq_mshr_miss_rate::cpu.data            1                       # mshr miss rate for SoftPFReq accesses
system.cpu.dcache.SoftPFReq_mshr_miss_rate::total            1                       # mshr miss rate for SoftPFReq accesses
system.cpu.dcache.demand_mshr_miss_rate::cpu.data     0.006590                       # mshr miss rate for demand accesses
system.cpu.dcache.demand_mshr_miss_rate::total     0.006590                       # mshr miss rate for demand accesses
system.cpu.dcache.overall_mshr_miss_rate::cpu.data     0.006645                       # mshr miss rate for overall accesses
system.cpu.dcache.overall_mshr_miss_rate::total     0.006645                       # mshr miss rate for overall accesses
system.cpu.dcache.ReadReq_avg_mshr_miss_latency::cpu.data 33571.157758                       # average ReadReq mshr miss latency
system.cpu.dcache.ReadReq_avg_mshr_miss_latency::total 33571.157758                       # average ReadReq mshr miss latency
system.cpu.dcache.WriteReq_avg_mshr_miss_latency::cpu.data 62005.839815                       # average WriteReq mshr miss latency
system.cpu.dcache.WriteReq_avg_mshr_miss_latency::total 62005.839815                       # average WriteReq mshr miss latency
system.cpu.dcache.SoftPFReq_avg_mshr_miss_latency::cpu.data 86071.777100                       # average SoftPFReq mshr miss latency
system.cpu.dcache.SoftPFReq_avg_mshr_miss_latency::total 86071.777100                       # average SoftPFReq mshr miss latency
system.cpu.dcache.demand_avg_mshr_miss_latency::cpu.data 41968.054114                       # average overall mshr miss latency
system.cpu.dcache.demand_avg_mshr_miss_latency::total 41968.054114                       # average overall mshr miss latency
system.cpu.dcache.overall_avg_mshr_miss_latency::cpu.data 42335.455078                       # average overall mshr miss latency
system.cpu.dcache.overall_avg_mshr_miss_latency::total 42335.455078                       # average overall mshr miss latency
system.cpu.dtb_walker_cache.tags.pwrStateResidencyTicks::UNDEFINED 1065475864500                       # Cumulative time (in ticks) in various power states
system.cpu.dtb_walker_cache.tags.replacements            0                       # number of replacements
system.cpu.dtb_walker_cache.tags.tagsinuse            0                       # Cycle average of tags in use
system.cpu.dtb_walker_cache.tags.total_refs            0                       # Total number of references to valid blocks.
system.cpu.dtb_walker_cache.tags.sampled_refs            0                       # Sample count of references to valid blocks.
system.cpu.dtb_walker_cache.tags.avg_refs          nan                       # Average number of references to valid blocks.
system.cpu.dtb_walker_cache.tags.warmup_cycle            0                       # Cycle when the warmup percentage was hit.
system.cpu.dtb_walker_cache.tags.tag_accesses            0                       # Number of tag accesses
system.cpu.dtb_walker_cache.tags.data_accesses            0                       # Number of data accesses
system.cpu.dtb_walker_cache.pwrStateResidencyTicks::UNDEFINED 1065475864500                       # Cumulative time (in ticks) in various power states
system.cpu.dtb_walker_cache.blocked_cycles::no_mshrs            0                       # number of cycles access was blocked
system.cpu.dtb_walker_cache.blocked_cycles::no_targets            0                       # number of cycles access was blocked
system.cpu.dtb_walker_cache.blocked::no_mshrs            0                       # number of cycles access was blocked
system.cpu.dtb_walker_cache.blocked::no_targets            0                       # number of cycles access was blocked
system.cpu.dtb_walker_cache.avg_blocked_cycles::no_mshrs          nan                       # average number of cycles each access was blocked
system.cpu.dtb_walker_cache.avg_blocked_cycles::no_targets          nan                       # average number of cycles each access was blocked
system.cpu.icache.tags.pwrStateResidencyTicks::UNDEFINED 1065475864500                       # Cumulative time (in ticks) in various power states
system.cpu.icache.tags.replacements               133                       # number of replacements
system.cpu.icache.tags.tagsinuse           645.697384                       # Cycle average of tags in use
system.cpu.icache.tags.total_refs           687396866                       # Total number of references to valid blocks.
system.cpu.icache.tags.sampled_refs               996                       # Sample count of references to valid blocks.
system.cpu.icache.tags.avg_refs          690157.495984                       # Average number of references to valid blocks.
system.cpu.icache.tags.warmup_cycle                 0                       # Cycle when the warmup percentage was hit.
system.cpu.icache.tags.occ_blocks::cpu.inst   645.697384                       # Average occupied blocks per requestor
system.cpu.icache.tags.occ_percent::cpu.inst     0.630564                       # Average percentage of cache occupancy
system.cpu.icache.tags.occ_percent::total     0.630564                       # Average percentage of cache occupancy
system.cpu.icache.tags.occ_task_id_blocks::1024          863                       # Occupied blocks per task id
system.cpu.icache.tags.age_task_id_blocks_1024::1            7                       # Occupied blocks per task id
system.cpu.icache.tags.age_task_id_blocks_1024::3           25                       # Occupied blocks per task id
system.cpu.icache.tags.age_task_id_blocks_1024::4          831                       # Occupied blocks per task id
system.cpu.icache.tags.occ_task_id_percent::1024     0.842773                       # Percentage of cache occupancy per task id
system.cpu.icache.tags.tag_accesses        2749592444                       # Number of tag accesses
system.cpu.icache.tags.data_accesses       2749592444                       # Number of data accesses
system.cpu.icache.pwrStateResidencyTicks::UNDEFINED 1065475864500                       # Cumulative time (in ticks) in various power states
system.cpu.icache.ReadReq_hits::cpu.inst    687396866                       # number of ReadReq hits
system.cpu.icache.ReadReq_hits::total       687396866                       # number of ReadReq hits
system.cpu.icache.demand_hits::cpu.inst     687396866                       # number of demand (read+write) hits
system.cpu.icache.demand_hits::total        687396866                       # number of demand (read+write) hits
system.cpu.icache.overall_hits::cpu.inst    687396866                       # number of overall hits
system.cpu.icache.overall_hits::total       687396866                       # number of overall hits
system.cpu.icache.ReadReq_misses::cpu.inst          996                       # number of ReadReq misses
system.cpu.icache.ReadReq_misses::total           996                       # number of ReadReq misses
system.cpu.icache.demand_misses::cpu.inst          996                       # number of demand (read+write) misses
system.cpu.icache.demand_misses::total            996                       # number of demand (read+write) misses
system.cpu.icache.overall_misses::cpu.inst          996                       # number of overall misses
system.cpu.icache.overall_misses::total           996                       # number of overall misses
system.cpu.icache.ReadReq_miss_latency::cpu.inst     96434500                       # number of ReadReq miss cycles
system.cpu.icache.ReadReq_miss_latency::total     96434500                       # number of ReadReq miss cycles
system.cpu.icache.demand_miss_latency::cpu.inst     96434500                       # number of demand (read+write) miss cycles
system.cpu.icache.demand_miss_latency::total     96434500                       # number of demand (read+write) miss cycles
system.cpu.icache.overall_miss_latency::cpu.inst     96434500                       # number of overall miss cycles
system.cpu.icache.overall_miss_latency::total     96434500                       # number of overall miss cycles
system.cpu.icache.ReadReq_accesses::cpu.inst    687397862                       # number of ReadReq accesses(hits+misses)
system.cpu.icache.ReadReq_accesses::total    687397862                       # number of ReadReq accesses(hits+misses)
system.cpu.icache.demand_accesses::cpu.inst    687397862                       # number of demand (read+write) accesses
system.cpu.icache.demand_accesses::total    687397862                       # number of demand (read+write) accesses
system.cpu.icache.overall_accesses::cpu.inst    687397862                       # number of overall (read+write) accesses
system.cpu.icache.overall_accesses::total    687397862                       # number of overall (read+write) accesses
system.cpu.icache.ReadReq_miss_rate::cpu.inst     0.000001                       # miss rate for ReadReq accesses
system.cpu.icache.ReadReq_miss_rate::total     0.000001                       # miss rate for ReadReq accesses
system.cpu.icache.demand_miss_rate::cpu.inst     0.000001                       # miss rate for demand accesses
system.cpu.icache.demand_miss_rate::total     0.000001                       # miss rate for demand accesses
system.cpu.icache.overall_miss_rate::cpu.inst     0.000001                       # miss rate for overall accesses
system.cpu.icache.overall_miss_rate::total     0.000001                       # miss rate for overall accesses
system.cpu.icache.ReadReq_avg_miss_latency::cpu.inst 96821.787149                       # average ReadReq miss latency
system.cpu.icache.ReadReq_avg_miss_latency::total 96821.787149                       # average ReadReq miss latency
system.cpu.icache.demand_avg_miss_latency::cpu.inst 96821.787149                       # average overall miss latency
system.cpu.icache.demand_avg_miss_latency::total 96821.787149                       # average overall miss latency
system.cpu.icache.overall_avg_miss_latency::cpu.inst 96821.787149                       # average overall miss latency
system.cpu.icache.overall_avg_miss_latency::total 96821.787149                       # average overall miss latency
system.cpu.icache.blocked_cycles::no_mshrs            0                       # number of cycles access was blocked
system.cpu.icache.blocked_cycles::no_targets            0                       # number of cycles access was blocked
system.cpu.icache.blocked::no_mshrs                 0                       # number of cycles access was blocked
system.cpu.icache.blocked::no_targets               0                       # number of cycles access was blocked
system.cpu.icache.avg_blocked_cycles::no_mshrs          nan                       # average number of cycles each access was blocked
system.cpu.icache.avg_blocked_cycles::no_targets          nan                       # average number of cycles each access was blocked
system.cpu.icache.writebacks::writebacks          133                       # number of writebacks
system.cpu.icache.writebacks::total               133                       # number of writebacks
system.cpu.icache.ReadReq_mshr_misses::cpu.inst          996                       # number of ReadReq MSHR misses
system.cpu.icache.ReadReq_mshr_misses::total          996                       # number of ReadReq MSHR misses
system.cpu.icache.demand_mshr_misses::cpu.inst          996                       # number of demand (read+write) MSHR misses
system.cpu.icache.demand_mshr_misses::total          996                       # number of demand (read+write) MSHR misses
system.cpu.icache.overall_mshr_misses::cpu.inst          996                       # number of overall MSHR misses
system.cpu.icache.overall_mshr_misses::total          996                       # number of overall MSHR misses
system.cpu.icache.ReadReq_mshr_miss_latency::cpu.inst     95438500                       # number of ReadReq MSHR miss cycles
system.cpu.icache.ReadReq_mshr_miss_latency::total     95438500                       # number of ReadReq MSHR miss cycles
system.cpu.icache.demand_mshr_miss_latency::cpu.inst     95438500                       # number of demand (read+write) MSHR miss cycles
system.cpu.icache.demand_mshr_miss_latency::total     95438500                       # number of demand (read+write) MSHR miss cycles
system.cpu.icache.overall_mshr_miss_latency::cpu.inst     95438500                       # number of overall MSHR miss cycles
system.cpu.icache.overall_mshr_miss_latency::total     95438500                       # number of overall MSHR miss cycles
system.cpu.icache.ReadReq_mshr_miss_rate::cpu.inst     0.000001                       # mshr miss rate for ReadReq accesses
system.cpu.icache.ReadReq_mshr_miss_rate::total     0.000001                       # mshr miss rate for ReadReq accesses
system.cpu.icache.demand_mshr_miss_rate::cpu.inst     0.000001                       # mshr miss rate for demand accesses
system.cpu.icache.demand_mshr_miss_rate::total     0.000001                       # mshr miss rate for demand accesses
system.cpu.icache.overall_mshr_miss_rate::cpu.inst     0.000001                       # mshr miss rate for overall accesses
system.cpu.icache.overall_mshr_miss_rate::total     0.000001                       # mshr miss rate for overall accesses
system.cpu.icache.ReadReq_avg_mshr_miss_latency::cpu.inst 95821.787149                       # average ReadReq mshr miss latency
system.cpu.icache.ReadReq_avg_mshr_miss_latency::total 95821.787149                       # average ReadReq mshr miss latency
system.cpu.icache.demand_avg_mshr_miss_latency::cpu.inst 95821.787149                       # average overall mshr miss latency
system.cpu.icache.demand_avg_mshr_miss_latency::total 95821.787149                       # average overall mshr miss latency
system.cpu.icache.overall_avg_mshr_miss_latency::cpu.inst 95821.787149                       # average overall mshr miss latency
system.cpu.icache.overall_avg_mshr_miss_latency::total 95821.787149                       # average overall mshr miss latency
system.cpu.itb_walker_cache.tags.pwrStateResidencyTicks::UNDEFINED 1065475864500                       # Cumulative time (in ticks) in various power states
system.cpu.itb_walker_cache.tags.replacements            0                       # number of replacements
system.cpu.itb_walker_cache.tags.tagsinuse            0                       # Cycle average of tags in use
system.cpu.itb_walker_cache.tags.total_refs            0                       # Total number of references to valid blocks.
system.cpu.itb_walker_cache.tags.sampled_refs            0                       # Sample count of references to valid blocks.
system.cpu.itb_walker_cache.tags.avg_refs          nan                       # Average number of references to valid blocks.
system.cpu.itb_walker_cache.tags.warmup_cycle            0                       # Cycle when the warmup percentage was hit.
system.cpu.itb_walker_cache.tags.tag_accesses            0                       # Number of tag accesses
system.cpu.itb_walker_cache.tags.data_accesses            0                       # Number of data accesses
system.cpu.itb_walker_cache.pwrStateResidencyTicks::UNDEFINED 1065475864500                       # Cumulative time (in ticks) in various power states
system.cpu.itb_walker_cache.blocked_cycles::no_mshrs            0                       # number of cycles access was blocked
system.cpu.itb_walker_cache.blocked_cycles::no_targets            0                       # number of cycles access was blocked
system.cpu.itb_walker_cache.blocked::no_mshrs            0                       # number of cycles access was blocked
system.cpu.itb_walker_cache.blocked::no_targets            0                       # number of cycles access was blocked
system.cpu.itb_walker_cache.avg_blocked_cycles::no_mshrs          nan                       # average number of cycles each access was blocked
system.cpu.itb_walker_cache.avg_blocked_cycles::no_targets          nan                       # average number of cycles each access was blocked
system.l2.tags.pwrStateResidencyTicks::UNDEFINED 1065475864500                       # Cumulative time (in ticks) in various power states
system.l2.tags.replacements                    646273                       # number of replacements
system.l2.tags.tagsinuse                 16328.627344                       # Cycle average of tags in use
system.l2.tags.total_refs                     3257653                       # Total number of references to valid blocks.
system.l2.tags.sampled_refs                    662657                       # Sample count of references to valid blocks.
system.l2.tags.avg_refs                      4.916047                       # Average number of references to valid blocks.
system.l2.tags.warmup_cycle                4225780000                       # Cycle when the warmup percentage was hit.
system.l2.tags.occ_blocks::writebacks      211.027710                       # Average occupied blocks per requestor
system.l2.tags.occ_blocks::cpu.inst         17.217172                       # Average occupied blocks per requestor
system.l2.tags.occ_blocks::cpu.data      16100.382462                       # Average occupied blocks per requestor
system.l2.tags.occ_percent::writebacks       0.012880                       # Average percentage of cache occupancy
system.l2.tags.occ_percent::cpu.inst         0.001051                       # Average percentage of cache occupancy
system.l2.tags.occ_percent::cpu.data         0.982689                       # Average percentage of cache occupancy
system.l2.tags.occ_percent::total            0.996620                       # Average percentage of cache occupancy
system.l2.tags.occ_task_id_blocks::1024         16384                       # Occupied blocks per task id
system.l2.tags.age_task_id_blocks_1024::1           15                       # Occupied blocks per task id
system.l2.tags.age_task_id_blocks_1024::2           16                       # Occupied blocks per task id
system.l2.tags.age_task_id_blocks_1024::3          247                       # Occupied blocks per task id
system.l2.tags.age_task_id_blocks_1024::4        16106                       # Occupied blocks per task id
system.l2.tags.occ_task_id_percent::1024            1                       # Percentage of cache occupancy per task id
system.l2.tags.tag_accesses                   8527921                       # Number of tag accesses
system.l2.tags.data_accesses                  8527921                       # Number of data accesses
system.l2.pwrStateResidencyTicks::UNDEFINED 1065475864500                       # Cumulative time (in ticks) in various power states
system.l2.WritebackDirty_hits::writebacks       912552                       # number of WritebackDirty hits
system.l2.WritebackDirty_hits::total           912552                       # number of WritebackDirty hits
system.l2.WritebackClean_hits::writebacks          133                       # number of WritebackClean hits
system.l2.WritebackClean_hits::total              133                       # number of WritebackClean hits
system.l2.ReadExReq_hits::cpu.data             254124                       # number of ReadExReq hits
system.l2.ReadExReq_hits::total                254124                       # number of ReadExReq hits
system.l2.ReadCleanReq_hits::cpu.inst               2                       # number of ReadCleanReq hits
system.l2.ReadCleanReq_hits::total                  2                       # number of ReadCleanReq hits
system.l2.ReadSharedReq_hits::cpu.data        1066083                       # number of ReadSharedReq hits
system.l2.ReadSharedReq_hits::total           1066083                       # number of ReadSharedReq hits
system.l2.demand_hits::cpu.inst                     2                       # number of demand (read+write) hits
system.l2.demand_hits::cpu.data               1320207                       # number of demand (read+write) hits
system.l2.demand_hits::total                  1320209                       # number of demand (read+write) hits
system.l2.overall_hits::cpu.inst                    2                       # number of overall hits
system.l2.overall_hits::cpu.data              1320207                       # number of overall hits
system.l2.overall_hits::total                 1320209                       # number of overall hits
system.l2.ReadExReq_misses::cpu.data           321836                       # number of ReadExReq misses
system.l2.ReadExReq_misses::total              321836                       # number of ReadExReq misses
system.l2.ReadCleanReq_misses::cpu.inst           994                       # number of ReadCleanReq misses
system.l2.ReadCleanReq_misses::total              994                       # number of ReadCleanReq misses
system.l2.ReadSharedReq_misses::cpu.data       324733                       # number of ReadSharedReq misses
system.l2.ReadSharedReq_misses::total          324733                       # number of ReadSharedReq misses
system.l2.demand_misses::cpu.inst                 994                       # number of demand (read+write) misses
system.l2.demand_misses::cpu.data              646569                       # number of demand (read+write) misses
system.l2.demand_misses::total                 647563                       # number of demand (read+write) misses
system.l2.overall_misses::cpu.inst                994                       # number of overall misses
system.l2.overall_misses::cpu.data             646569                       # number of overall misses
system.l2.overall_misses::total                647563                       # number of overall misses
system.l2.ReadExReq_miss_latency::cpu.data  32180640500                       # number of ReadExReq miss cycles
system.l2.ReadExReq_miss_latency::total   32180640500                       # number of ReadExReq miss cycles
system.l2.ReadCleanReq_miss_latency::cpu.inst     93922000                       # number of ReadCleanReq miss cycles
system.l2.ReadCleanReq_miss_latency::total     93922000                       # number of ReadCleanReq miss cycles
system.l2.ReadSharedReq_miss_latency::cpu.data  34271331000                       # number of ReadSharedReq miss cycles
system.l2.ReadSharedReq_miss_latency::total  34271331000                       # number of ReadSharedReq miss cycles
system.l2.demand_miss_latency::cpu.inst      93922000                       # number of demand (read+write) miss cycles
system.l2.demand_miss_latency::cpu.data   66451971500                       # number of demand (read+write) miss cycles
system.l2.demand_miss_latency::total      66545893500                       # number of demand (read+write) miss cycles
system.l2.overall_miss_latency::cpu.inst     93922000                       # number of overall miss cycles
system.l2.overall_miss_latency::cpu.data  66451971500                       # number of overall miss cycles
system.l2.overall_miss_latency::total     66545893500                       # number of overall miss cycles
system.l2.WritebackDirty_accesses::writebacks       912552                       # number of WritebackDirty accesses(hits+misses)
system.l2.WritebackDirty_accesses::total       912552                       # number of WritebackDirty accesses(hits+misses)
system.l2.WritebackClean_accesses::writebacks          133                       # number of WritebackClean accesses(hits+misses)
system.l2.WritebackClean_accesses::total          133                       # number of WritebackClean accesses(hits+misses)
system.l2.ReadExReq_accesses::cpu.data         575960                       # number of ReadExReq accesses(hits+misses)
system.l2.ReadExReq_accesses::total            575960                       # number of ReadExReq accesses(hits+misses)
system.l2.ReadCleanReq_accesses::cpu.inst          996                       # number of ReadCleanReq accesses(hits+misses)
system.l2.ReadCleanReq_accesses::total            996                       # number of ReadCleanReq accesses(hits+misses)
system.l2.ReadSharedReq_accesses::cpu.data      1390816                       # number of ReadSharedReq accesses(hits+misses)
system.l2.ReadSharedReq_accesses::total       1390816                       # number of ReadSharedReq accesses(hits+misses)
system.l2.demand_accesses::cpu.inst               996                       # number of demand (read+write) accesses
system.l2.demand_accesses::cpu.data           1966776                       # number of demand (read+write) accesses
system.l2.demand_accesses::total              1967772                       # number of demand (read+write) accesses
system.l2.overall_accesses::cpu.inst              996                       # number of overall (read+write) accesses
system.l2.overall_accesses::cpu.data          1966776                       # number of overall (read+write) accesses
system.l2.overall_accesses::total             1967772                       # number of overall (read+write) accesses
system.l2.ReadExReq_miss_rate::cpu.data      0.558782                       # miss rate for ReadExReq accesses
system.l2.ReadExReq_miss_rate::total         0.558782                       # miss rate for ReadExReq accesses
system.l2.ReadCleanReq_miss_rate::cpu.inst     0.997992                       # miss rate for ReadCleanReq accesses
system.l2.ReadCleanReq_miss_rate::total      0.997992                       # miss rate for ReadCleanReq accesses
system.l2.ReadSharedReq_miss_rate::cpu.data     0.233484                       # miss rate for ReadSharedReq accesses
system.l2.ReadSharedReq_miss_rate::total     0.233484                       # miss rate for ReadSharedReq accesses
system.l2.demand_miss_rate::cpu.inst         0.997992                       # miss rate for demand accesses
system.l2.demand_miss_rate::cpu.data         0.328746                       # miss rate for demand accesses
system.l2.demand_miss_rate::total            0.329084                       # miss rate for demand accesses
system.l2.overall_miss_rate::cpu.inst        0.997992                       # miss rate for overall accesses
system.l2.overall_miss_rate::cpu.data        0.328746                       # miss rate for overall accesses
system.l2.overall_miss_rate::total           0.329084                       # miss rate for overall accesses
system.l2.ReadExReq_avg_miss_latency::cpu.data 99990.804323                       # average ReadExReq miss latency
system.l2.ReadExReq_avg_miss_latency::total 99990.804323                       # average ReadExReq miss latency
system.l2.ReadCleanReq_avg_miss_latency::cpu.inst 94488.933602                       # average ReadCleanReq miss latency
system.l2.ReadCleanReq_avg_miss_latency::total 94488.933602                       # average ReadCleanReq miss latency
system.l2.ReadSharedReq_avg_miss_latency::cpu.data 105536.951896                       # average ReadSharedReq miss latency
system.l2.ReadSharedReq_avg_miss_latency::total 105536.951896                       # average ReadSharedReq miss latency
system.l2.demand_avg_miss_latency::cpu.inst 94488.933602                       # average overall miss latency
system.l2.demand_avg_miss_latency::cpu.data 102776.303071                       # average overall miss latency
system.l2.demand_avg_miss_latency::total 102763.582076                       # average overall miss latency
system.l2.overall_avg_miss_latency::cpu.inst 94488.933602                       # average overall miss latency
system.l2.overall_avg_miss_latency::cpu.data 102776.303071                       # average overall miss latency
system.l2.overall_avg_miss_latency::total 102763.582076                       # average overall miss latency
system.l2.blocked_cycles::no_mshrs                  0                       # number of cycles access was blocked
system.l2.blocked_cycles::no_targets                0                       # number of cycles access was blocked
system.l2.blocked::no_mshrs                         0                       # number of cycles access was blocked
system.l2.blocked::no_targets                       0                       # number of cycles access was blocked
system.l2.avg_blocked_cycles::no_mshrs            nan                       # average number of cycles each access was blocked
system.l2.avg_blocked_cycles::no_targets          nan                       # average number of cycles each access was blocked
system.l2.writebacks::writebacks               390531                       # number of writebacks
system.l2.writebacks::total                    390531                       # number of writebacks
system.l2.CleanEvict_mshr_misses::writebacks        12322                       # number of CleanEvict MSHR misses
system.l2.CleanEvict_mshr_misses::total         12322                       # number of CleanEvict MSHR misses
system.l2.ReadExReq_mshr_misses::cpu.data       321836                       # number of ReadExReq MSHR misses
system.l2.ReadExReq_mshr_misses::total         321836                       # number of ReadExReq MSHR misses
system.l2.ReadCleanReq_mshr_misses::cpu.inst          994                       # number of ReadCleanReq MSHR misses
system.l2.ReadCleanReq_mshr_misses::total          994                       # number of ReadCleanReq MSHR misses
system.l2.ReadSharedReq_mshr_misses::cpu.data       324733                       # number of ReadSharedReq MSHR misses
system.l2.ReadSharedReq_mshr_misses::total       324733                       # number of ReadSharedReq MSHR misses
system.l2.demand_mshr_misses::cpu.inst            994                       # number of demand (read+write) MSHR misses
system.l2.demand_mshr_misses::cpu.data         646569                       # number of demand (read+write) MSHR misses
system.l2.demand_mshr_misses::total            647563                       # number of demand (read+write) MSHR misses
system.l2.overall_mshr_misses::cpu.inst           994                       # number of overall MSHR misses
system.l2.overall_mshr_misses::cpu.data        646569                       # number of overall MSHR misses
system.l2.overall_mshr_misses::total           647563                       # number of overall MSHR misses
system.l2.ReadExReq_mshr_miss_latency::cpu.data  28962280500                       # number of ReadExReq MSHR miss cycles
system.l2.ReadExReq_mshr_miss_latency::total  28962280500                       # number of ReadExReq MSHR miss cycles
system.l2.ReadCleanReq_mshr_miss_latency::cpu.inst     83982000                       # number of ReadCleanReq MSHR miss cycles
system.l2.ReadCleanReq_mshr_miss_latency::total     83982000                       # number of ReadCleanReq MSHR miss cycles
system.l2.ReadSharedReq_mshr_miss_latency::cpu.data  31024001000                       # number of ReadSharedReq MSHR miss cycles
system.l2.ReadSharedReq_mshr_miss_latency::total  31024001000                       # number of ReadSharedReq MSHR miss cycles
system.l2.demand_mshr_miss_latency::cpu.inst     83982000                       # number of demand (read+write) MSHR miss cycles
system.l2.demand_mshr_miss_latency::cpu.data  59986281500                       # number of demand (read+write) MSHR miss cycles
system.l2.demand_mshr_miss_latency::total  60070263500                       # number of demand (read+write) MSHR miss cycles
system.l2.overall_mshr_miss_latency::cpu.inst     83982000                       # number of overall MSHR miss cycles
system.l2.overall_mshr_miss_latency::cpu.data  59986281500                       # number of overall MSHR miss cycles
system.l2.overall_mshr_miss_latency::total  60070263500                       # number of overall MSHR miss cycles
system.l2.CleanEvict_mshr_miss_rate::writebacks          inf                       # mshr miss rate for CleanEvict accesses
system.l2.CleanEvict_mshr_miss_rate::total          inf                       # mshr miss rate for CleanEvict accesses
system.l2.ReadExReq_mshr_miss_rate::cpu.data     0.558782                       # mshr miss rate for ReadExReq accesses
system.l2.ReadExReq_mshr_miss_rate::total     0.558782                       # mshr miss rate for ReadExReq accesses
system.l2.ReadCleanReq_mshr_miss_rate::cpu.inst     0.997992                       # mshr miss rate for ReadCleanReq accesses
system.l2.ReadCleanReq_mshr_miss_rate::total     0.997992                       # mshr miss rate for ReadCleanReq accesses
system.l2.ReadSharedReq_mshr_miss_rate::cpu.data     0.233484                       # mshr miss rate for ReadSharedReq accesses
system.l2.ReadSharedReq_mshr_miss_rate::total     0.233484                       # mshr miss rate for ReadSharedReq accesses
system.l2.demand_mshr_miss_rate::cpu.inst     0.997992                       # mshr miss rate for demand accesses
system.l2.demand_mshr_miss_rate::cpu.data     0.328746                       # mshr miss rate for demand accesses
system.l2.demand_mshr_miss_rate::total       0.329084                       # mshr miss rate for demand accesses
system.l2.overall_mshr_miss_rate::cpu.inst     0.997992                       # mshr miss rate for overall accesses
system.l2.overall_mshr_miss_rate::cpu.data     0.328746                       # mshr miss rate for overall accesses
system.l2.overall_mshr_miss_rate::total      0.329084                       # mshr miss rate for overall accesses
system.l2.ReadExReq_avg_mshr_miss_latency::cpu.data 89990.804323                       # average ReadExReq mshr miss latency
system.l2.ReadExReq_avg_mshr_miss_latency::total 89990.804323                       # average ReadExReq mshr miss latency
system.l2.ReadCleanReq_avg_mshr_miss_latency::cpu.inst 84488.933602                       # average ReadCleanReq mshr miss latency
system.l2.ReadCleanReq_avg_mshr_miss_latency::total 84488.933602                       # average ReadCleanReq mshr miss latency
system.l2.ReadSharedReq_avg_mshr_miss_latency::cpu.data 95536.951896                       # average ReadSharedReq mshr miss latency
system.l2.ReadSharedReq_avg_mshr_miss_latency::total 95536.951896                       # average ReadSharedReq mshr miss latency
system.l2.demand_avg_mshr_miss_latency::cpu.inst 84488.933602                       # average overall mshr miss latency
system.l2.demand_avg_mshr_miss_latency::cpu.data 92776.303071                       # average overall mshr miss latency
system.l2.demand_avg_mshr_miss_latency::total 92763.582076                       # average overall mshr miss latency
system.l2.overall_avg_mshr_miss_latency::cpu.inst 84488.933602                       # average overall mshr miss latency
system.l2.overall_avg_mshr_miss_latency::cpu.data 92776.303071                       # average overall mshr miss latency
system.l2.overall_avg_mshr_miss_latency::total 92763.582076                       # average overall mshr miss latency
system.membus.snoop_filter.tot_requests       1277865                       # Total number of requests made to the snoop filter.
system.membus.snoop_filter.hit_single_requests       630302                       # Number of requests hitting in the snoop filter with a single holder of the requested data.
system.membus.snoop_filter.hit_multi_requests            0                       # Number of requests hitting in the snoop filter with multiple (>1) holders of the requested data.
system.membus.snoop_filter.tot_snoops               0                       # Total number of snoops made to the snoop filter.
system.membus.snoop_filter.hit_single_snoops            0                       # Number of snoops hitting in the snoop filter with a single holder of the requested data.
system.membus.snoop_filter.hit_multi_snoops            0                       # Number of snoops hitting in the snoop filter with multiple (>1) holders of the requested data.
system.membus.pwrStateResidencyTicks::UNDEFINED 1065475864500                       # Cumulative time (in ticks) in various power states
system.membus.trans_dist::ReadResp             325727                       # Transaction distribution
system.membus.trans_dist::WritebackDirty       390531                       # Transaction distribution
system.membus.trans_dist::CleanEvict           239771                       # Transaction distribution
system.membus.trans_dist::ReadExReq            321836                       # Transaction distribution
system.membus.trans_dist::ReadExResp           321836                       # Transaction distribution
system.membus.trans_dist::ReadSharedReq        325727                       # Transaction distribution
system.membus.pkt_count_system.l2.mem_side::system.mem_ctrls.port      1925428                       # Packet count per connected master and slave (bytes)
system.membus.pkt_count_system.l2.mem_side::total      1925428                       # Packet count per connected master and slave (bytes)
system.membus.pkt_count::total                1925428                       # Packet count per connected master and slave (bytes)
system.membus.pkt_size_system.l2.mem_side::system.mem_ctrls.port     66438016                       # Cumulative packet size per connected master and slave (bytes)
system.membus.pkt_size_system.l2.mem_side::total     66438016                       # Cumulative packet size per connected master and slave (bytes)
system.membus.pkt_size::total                66438016                       # Cumulative packet size per connected master and slave (bytes)
system.membus.snoops                                0                       # Total snoops (count)
system.membus.snoopTraffic                          0                       # Total snoop traffic (bytes)
system.membus.snoop_fanout::samples            647563                       # Request fanout histogram
system.membus.snoop_fanout::mean                    0                       # Request fanout histogram
system.membus.snoop_fanout::stdev                   0                       # Request fanout histogram
system.membus.snoop_fanout::underflows              0      0.00%      0.00% # Request fanout histogram
system.membus.snoop_fanout::0                  647563    100.00%    100.00% # Request fanout histogram
system.membus.snoop_fanout::1                       0      0.00%    100.00% # Request fanout histogram
system.membus.snoop_fanout::overflows               0      0.00%    100.00% # Request fanout histogram
system.membus.snoop_fanout::min_value               0                       # Request fanout histogram
system.membus.snoop_fanout::max_value               0                       # Request fanout histogram
system.membus.snoop_fanout::total              647563                       # Request fanout histogram
system.membus.reqLayer2.occupancy          2848045000                       # Layer occupancy (ticks)
system.membus.reqLayer2.utilization               0.3                       # Layer utilization (%)
system.membus.respLayer1.occupancy         3505423250                       # Layer occupancy (ticks)
system.membus.respLayer1.utilization              0.3                       # Layer utilization (%)
system.tol2bus.snoop_filter.tot_requests      3932633                       # Total number of requests made to the snoop filter.
system.tol2bus.snoop_filter.hit_single_requests      1964861                       # Number of requests hitting in the snoop filter with a single holder of the requested data.
system.tol2bus.snoop_filter.hit_multi_requests            1                       # Number of requests hitting in the snoop filter with multiple (>1) holders of the requested data.
system.tol2bus.snoop_filter.tot_snoops          28293                       # Total number of snoops made to the snoop filter.
system.tol2bus.snoop_filter.hit_single_snoops        28293                       # Number of snoops hitting in the snoop filter with a single holder of the requested data.
system.tol2bus.snoop_filter.hit_multi_snoops            0                       # Number of snoops hitting in the snoop filter with multiple (>1) holders of the requested data.
system.tol2bus.pwrStateResidencyTicks::UNDEFINED 1065475864500                       # Cumulative time (in ticks) in various power states
system.tol2bus.trans_dist::ReadResp           1391812                       # Transaction distribution
system.tol2bus.trans_dist::WritebackDirty      1303083                       # Transaction distribution
system.tol2bus.trans_dist::WritebackClean          133                       # Transaction distribution
system.tol2bus.trans_dist::CleanEvict         1307918                       # Transaction distribution
system.tol2bus.trans_dist::ReadExReq           575960                       # Transaction distribution
system.tol2bus.trans_dist::ReadExResp          575960                       # Transaction distribution
system.tol2bus.trans_dist::ReadCleanReq           996                       # Transaction distribution
system.tol2bus.trans_dist::ReadSharedReq      1390816                       # Transaction distribution
system.tol2bus.pkt_count_system.cpu.icache.mem_side::system.l2.cpu_side         2125                       # Packet count per connected master and slave (bytes)
system.tol2bus.pkt_count_system.cpu.dcache.mem_side::system.l2.cpu_side      5898280                       # Packet count per connected master and slave (bytes)
system.tol2bus.pkt_count::total               5900405                       # Packet count per connected master and slave (bytes)
system.tol2bus.pkt_size_system.cpu.icache.mem_side::system.l2.cpu_side        72256                       # Cumulative packet size per connected master and slave (bytes)
system.tol2bus.pkt_size_system.cpu.dcache.mem_side::system.l2.cpu_side    184276992                       # Cumulative packet size per connected master and slave (bytes)
system.tol2bus.pkt_size::total              184349248                       # Cumulative packet size per connected master and slave (bytes)
system.tol2bus.snoops                          646273                       # Total snoops (count)
system.tol2bus.snoopTraffic                  24993984                       # Total snoop traffic (bytes)
system.tol2bus.snoop_fanout::samples          2614045                       # Request fanout histogram
system.tol2bus.snoop_fanout::mean            0.010824                       # Request fanout histogram
system.tol2bus.snoop_fanout::stdev           0.103473                       # Request fanout histogram
system.tol2bus.snoop_fanout::underflows             0      0.00%      0.00% # Request fanout histogram
system.tol2bus.snoop_fanout::0                2585751     98.92%     98.92% # Request fanout histogram
system.tol2bus.snoop_fanout::1                  28294      1.08%    100.00% # Request fanout histogram
system.tol2bus.snoop_fanout::2                      0      0.00%    100.00% # Request fanout histogram
system.tol2bus.snoop_fanout::3                      0      0.00%    100.00% # Request fanout histogram
system.tol2bus.snoop_fanout::4                      0      0.00%    100.00% # Request fanout histogram
system.tol2bus.snoop_fanout::overflows              0      0.00%    100.00% # Request fanout histogram
system.tol2bus.snoop_fanout::min_value              0                       # Request fanout histogram
system.tol2bus.snoop_fanout::max_value              1                       # Request fanout histogram
system.tol2bus.snoop_fanout::total            2614045                       # Request fanout histogram
system.tol2bus.reqLayer0.occupancy         2879001500                       # Layer occupancy (ticks)
system.tol2bus.reqLayer0.utilization              0.3                       # Layer utilization (%)
system.tol2bus.respLayer0.occupancy           1494000                       # Layer occupancy (ticks)
system.tol2bus.respLayer0.utilization             0.0                       # Layer utilization (%)
system.tol2bus.respLayer1.occupancy        2950164000                       # Layer occupancy (ticks)
system.tol2bus.respLayer1.utilization             0.3                       # Layer utilization (%)

---------- End Simulation Statistics   ----------
