
---------- Begin Simulation Statistics ----------
sim_seconds                                  2.385828                       # Number of seconds simulated
sim_ticks                                2385827952500                       # Number of ticks simulated
final_tick                               2385827952500                       # Number of ticks from beginning of simulation (restored from checkpoints and never reset)
sim_freq                                 1000000000000                       # Frequency of simulated ticks
host_inst_rate                                 470922                       # Simulator instruction rate (inst/s)
host_op_rate                                   775483                       # Simulator op (including micro ops) rate (op/s)
host_tick_rate                             2247078481                       # Simulator tick rate (ticks/s)
host_mem_usage                                 669852                       # Number of bytes of host memory used
host_seconds                                  1061.75                       # Real time elapsed on the host
sim_insts                                   500000000                       # Number of instructions simulated
sim_ops                                     823366692                       # Number of ops (including micro ops) simulated
system.voltage_domain.voltage                       1                       # Voltage in Volts
system.clk_domain.clock                          1000                       # Clock period in ticks
system.mem_ctrls.pwrStateResidencyTicks::UNDEFINED 2385827952500                       # Cumulative time (in ticks) in various power states
system.mem_ctrls.bytes_read::cpu.inst          106016                       # Number of bytes read from this memory
system.mem_ctrls.bytes_read::cpu.data       533375072                       # Number of bytes read from this memory
system.mem_ctrls.bytes_read::total          533481088                       # Number of bytes read from this memory
system.mem_ctrls.bytes_inst_read::cpu.inst       106016                       # Number of instructions bytes read from this memory
system.mem_ctrls.bytes_inst_read::total        106016                       # Number of instructions bytes read from this memory
system.mem_ctrls.bytes_written::writebacks    531993312                       # Number of bytes written to this memory
system.mem_ctrls.bytes_written::total       531993312                       # Number of bytes written to this memory
system.mem_ctrls.num_reads::cpu.inst             3313                       # Number of read requests responded to by this memory
system.mem_ctrls.num_reads::cpu.data         16667971                       # Number of read requests responded to by this memory
system.mem_ctrls.num_reads::total            16671284                       # Number of read requests responded to by this memory
system.mem_ctrls.num_writes::writebacks      16624791                       # Number of write requests responded to by this memory
system.mem_ctrls.num_writes::total           16624791                       # Number of write requests responded to by this memory
system.mem_ctrls.bw_read::cpu.inst              44436                       # Total read bandwidth from this memory (bytes/s)
system.mem_ctrls.bw_read::cpu.data          223559738                       # Total read bandwidth from this memory (bytes/s)
system.mem_ctrls.bw_read::total             223604174                       # Total read bandwidth from this memory (bytes/s)
system.mem_ctrls.bw_inst_read::cpu.inst         44436                       # Instruction read bandwidth from this memory (bytes/s)
system.mem_ctrls.bw_inst_read::total            44436                       # Instruction read bandwidth from this memory (bytes/s)
system.mem_ctrls.bw_write::writebacks       222980585                       # Write bandwidth from this memory (bytes/s)
system.mem_ctrls.bw_write::total            222980585                       # Write bandwidth from this memory (bytes/s)
system.mem_ctrls.bw_total::writebacks       222980585                       # Total bandwidth to/from this memory (bytes/s)
system.mem_ctrls.bw_total::cpu.inst             44436                       # Total bandwidth to/from this memory (bytes/s)
system.mem_ctrls.bw_total::cpu.data         223559738                       # Total bandwidth to/from this memory (bytes/s)
system.mem_ctrls.bw_total::total            446584759                       # Total bandwidth to/from this memory (bytes/s)
system.mem_ctrls.readReqs                    16671284                       # Number of read requests accepted
system.mem_ctrls.writeReqs                   16624791                       # Number of write requests accepted
system.mem_ctrls.readBursts                  16671284                       # Number of DRAM read bursts, including those serviced by the write queue
system.mem_ctrls.writeBursts                 16624791                       # Number of DRAM write bursts, including those merged in the write queue
system.mem_ctrls.bytesReadDRAM             1066960960                       # Total number of bytes read from DRAM
system.mem_ctrls.bytesReadWrQ                    1216                       # Total number of bytes read from write queue
system.mem_ctrls.bytesWritten               534518080                       # Total number of bytes written to DRAM
system.mem_ctrls.bytesReadSys               533481088                       # Total read bytes from the system interface side
system.mem_ctrls.bytesWrittenSys            531993312                       # Total written bytes from the system interface side
system.mem_ctrls.servicedByWrQ                     19                       # Number of DRAM read bursts serviced by the write queue
system.mem_ctrls.mergedWrBursts               8272915                       # Number of DRAM write bursts merged with an existing one
system.mem_ctrls.neitherReadNorWriteReqs            0                       # Number of requests that are neither read nor write
system.mem_ctrls.perBankRdBursts::0           1041774                       # Per bank write bursts
system.mem_ctrls.perBankRdBursts::1           1041442                       # Per bank write bursts
system.mem_ctrls.perBankRdBursts::2           1041675                       # Per bank write bursts
system.mem_ctrls.perBankRdBursts::3           1042252                       # Per bank write bursts
system.mem_ctrls.perBankRdBursts::4           1042108                       # Per bank write bursts
system.mem_ctrls.perBankRdBursts::5           1042162                       # Per bank write bursts
system.mem_ctrls.perBankRdBursts::6           1041734                       # Per bank write bursts
system.mem_ctrls.perBankRdBursts::7           1041746                       # Per bank write bursts
system.mem_ctrls.perBankRdBursts::8           1041265                       # Per bank write bursts
system.mem_ctrls.perBankRdBursts::9           1041655                       # Per bank write bursts
system.mem_ctrls.perBankRdBursts::10          1041931                       # Per bank write bursts
system.mem_ctrls.perBankRdBursts::11          1042483                       # Per bank write bursts
system.mem_ctrls.perBankRdBursts::12          1042371                       # Per bank write bursts
system.mem_ctrls.perBankRdBursts::13          1042323                       # Per bank write bursts
system.mem_ctrls.perBankRdBursts::14          1042112                       # Per bank write bursts
system.mem_ctrls.perBankRdBursts::15          1042232                       # Per bank write bursts
system.mem_ctrls.perBankWrBursts::0            521890                       # Per bank write bursts
system.mem_ctrls.perBankWrBursts::1            521677                       # Per bank write bursts
system.mem_ctrls.perBankWrBursts::2            521920                       # Per bank write bursts
system.mem_ctrls.perBankWrBursts::3            522223                       # Per bank write bursts
system.mem_ctrls.perBankWrBursts::4            521988                       # Per bank write bursts
system.mem_ctrls.perBankWrBursts::5            522168                       # Per bank write bursts
system.mem_ctrls.perBankWrBursts::6            521804                       # Per bank write bursts
system.mem_ctrls.perBankWrBursts::7            521957                       # Per bank write bursts
system.mem_ctrls.perBankWrBursts::8            521715                       # Per bank write bursts
system.mem_ctrls.perBankWrBursts::9            521895                       # Per bank write bursts
system.mem_ctrls.perBankWrBursts::10           521980                       # Per bank write bursts
system.mem_ctrls.perBankWrBursts::11           522162                       # Per bank write bursts
system.mem_ctrls.perBankWrBursts::12           522176                       # Per bank write bursts
system.mem_ctrls.perBankWrBursts::13           522221                       # Per bank write bursts
system.mem_ctrls.perBankWrBursts::14           522036                       # Per bank write bursts
system.mem_ctrls.perBankWrBursts::15           522033                       # Per bank write bursts
system.mem_ctrls.numRdRetry                         0                       # Number of times read queue was full causing retry
system.mem_ctrls.numWrRetry                         0                       # Number of times write queue was full causing retry
system.mem_ctrls.totGap                  2385804109500                       # Total gap between requests
system.mem_ctrls.readPktSize::0                     0                       # Read request sizes (log2)
system.mem_ctrls.readPktSize::1                     0                       # Read request sizes (log2)
system.mem_ctrls.readPktSize::2                     0                       # Read request sizes (log2)
system.mem_ctrls.readPktSize::3                     0                       # Read request sizes (log2)
system.mem_ctrls.readPktSize::4                     0                       # Read request sizes (log2)
system.mem_ctrls.readPktSize::5              16671284                       # Read request sizes (log2)
system.mem_ctrls.readPktSize::6                     0                       # Read request sizes (log2)
system.mem_ctrls.writePktSize::0                    0                       # Write request sizes (log2)
system.mem_ctrls.writePktSize::1                    0                       # Write request sizes (log2)
system.mem_ctrls.writePktSize::2                    0                       # Write request sizes (log2)
system.mem_ctrls.writePktSize::3                    0                       # Write request sizes (log2)
system.mem_ctrls.writePktSize::4                    0                       # Write request sizes (log2)
system.mem_ctrls.writePktSize::5             16624791                       # Write request sizes (log2)
system.mem_ctrls.writePktSize::6                    0                       # Write request sizes (log2)
system.mem_ctrls.rdQLenPdf::0                16671264                       # What read queue length does an incoming req see
system.mem_ctrls.rdQLenPdf::1                       1                       # What read queue length does an incoming req see
system.mem_ctrls.rdQLenPdf::2                       0                       # What read queue length does an incoming req see
system.mem_ctrls.rdQLenPdf::3                       0                       # What read queue length does an incoming req see
system.mem_ctrls.rdQLenPdf::4                       0                       # What read queue length does an incoming req see
system.mem_ctrls.rdQLenPdf::5                       0                       # What read queue length does an incoming req see
system.mem_ctrls.rdQLenPdf::6                       0                       # What read queue length does an incoming req see
system.mem_ctrls.rdQLenPdf::7                       0                       # What read queue length does an incoming req see
system.mem_ctrls.rdQLenPdf::8                       0                       # What read queue length does an incoming req see
system.mem_ctrls.rdQLenPdf::9                       0                       # What read queue length does an incoming req see
system.mem_ctrls.rdQLenPdf::10                      0                       # What read queue length does an incoming req see
system.mem_ctrls.rdQLenPdf::11                      0                       # What read queue length does an incoming req see
system.mem_ctrls.rdQLenPdf::12                      0                       # What read queue length does an incoming req see
system.mem_ctrls.rdQLenPdf::13                      0                       # What read queue length does an incoming req see
system.mem_ctrls.rdQLenPdf::14                      0                       # What read queue length does an incoming req see
system.mem_ctrls.rdQLenPdf::15                      0                       # What read queue length does an incoming req see
system.mem_ctrls.rdQLenPdf::16                      0                       # What read queue length does an incoming req see
system.mem_ctrls.rdQLenPdf::17                      0                       # What read queue length does an incoming req see
system.mem_ctrls.rdQLenPdf::18                      0                       # What read queue length does an incoming req see
system.mem_ctrls.rdQLenPdf::19                      0                       # What read queue length does an incoming req see
system.mem_ctrls.rdQLenPdf::20                      0                       # What read queue length does an incoming req see
system.mem_ctrls.rdQLenPdf::21                      0                       # What read queue length does an incoming req see
system.mem_ctrls.rdQLenPdf::22                      0                       # What read queue length does an incoming req see
system.mem_ctrls.rdQLenPdf::23                      0                       # What read queue length does an incoming req see
system.mem_ctrls.rdQLenPdf::24                      0                       # What read queue length does an incoming req see
system.mem_ctrls.rdQLenPdf::25                      0                       # What read queue length does an incoming req see
system.mem_ctrls.rdQLenPdf::26                      0                       # What read queue length does an incoming req see
system.mem_ctrls.rdQLenPdf::27                      0                       # What read queue length does an incoming req see
system.mem_ctrls.rdQLenPdf::28                      0                       # What read queue length does an incoming req see
system.mem_ctrls.rdQLenPdf::29                      0                       # What read queue length does an incoming req see
system.mem_ctrls.rdQLenPdf::30                      0                       # What read queue length does an incoming req see
system.mem_ctrls.rdQLenPdf::31                      0                       # What read queue length does an incoming req see
system.mem_ctrls.wrQLenPdf::0                       1                       # What write queue length does an incoming req see
system.mem_ctrls.wrQLenPdf::1                       1                       # What write queue length does an incoming req see
system.mem_ctrls.wrQLenPdf::2                       1                       # What write queue length does an incoming req see
system.mem_ctrls.wrQLenPdf::3                       1                       # What write queue length does an incoming req see
system.mem_ctrls.wrQLenPdf::4                       1                       # What write queue length does an incoming req see
system.mem_ctrls.wrQLenPdf::5                       1                       # What write queue length does an incoming req see
system.mem_ctrls.wrQLenPdf::6                       1                       # What write queue length does an incoming req see
system.mem_ctrls.wrQLenPdf::7                       1                       # What write queue length does an incoming req see
system.mem_ctrls.wrQLenPdf::8                       1                       # What write queue length does an incoming req see
system.mem_ctrls.wrQLenPdf::9                       1                       # What write queue length does an incoming req see
system.mem_ctrls.wrQLenPdf::10                      1                       # What write queue length does an incoming req see
system.mem_ctrls.wrQLenPdf::11                      1                       # What write queue length does an incoming req see
system.mem_ctrls.wrQLenPdf::12                      1                       # What write queue length does an incoming req see
system.mem_ctrls.wrQLenPdf::13                      1                       # What write queue length does an incoming req see
system.mem_ctrls.wrQLenPdf::14                      1                       # What write queue length does an incoming req see
system.mem_ctrls.wrQLenPdf::15                   3880                       # What write queue length does an incoming req see
system.mem_ctrls.wrQLenPdf::16                   4667                       # What write queue length does an incoming req see
system.mem_ctrls.wrQLenPdf::17                 521407                       # What write queue length does an incoming req see
system.mem_ctrls.wrQLenPdf::18                 521454                       # What write queue length does an incoming req see
system.mem_ctrls.wrQLenPdf::19                 521454                       # What write queue length does an incoming req see
system.mem_ctrls.wrQLenPdf::20                 521454                       # What write queue length does an incoming req see
system.mem_ctrls.wrQLenPdf::21                 521454                       # What write queue length does an incoming req see
system.mem_ctrls.wrQLenPdf::22                 521456                       # What write queue length does an incoming req see
system.mem_ctrls.wrQLenPdf::23                 521454                       # What write queue length does an incoming req see
system.mem_ctrls.wrQLenPdf::24                 521454                       # What write queue length does an incoming req see
system.mem_ctrls.wrQLenPdf::25                 521455                       # What write queue length does an incoming req see
system.mem_ctrls.wrQLenPdf::26                 521454                       # What write queue length does an incoming req see
system.mem_ctrls.wrQLenPdf::27                 521455                       # What write queue length does an incoming req see
system.mem_ctrls.wrQLenPdf::28                 521456                       # What write queue length does an incoming req see
system.mem_ctrls.wrQLenPdf::29                 521536                       # What write queue length does an incoming req see
system.mem_ctrls.wrQLenPdf::30                 521462                       # What write queue length does an incoming req see
system.mem_ctrls.wrQLenPdf::31                 521455                       # What write queue length does an incoming req see
system.mem_ctrls.wrQLenPdf::32                 521453                       # What write queue length does an incoming req see
system.mem_ctrls.wrQLenPdf::33                      1                       # What write queue length does an incoming req see
system.mem_ctrls.wrQLenPdf::34                      0                       # What write queue length does an incoming req see
system.mem_ctrls.wrQLenPdf::35                      0                       # What write queue length does an incoming req see
system.mem_ctrls.wrQLenPdf::36                      0                       # What write queue length does an incoming req see
system.mem_ctrls.wrQLenPdf::37                      0                       # What write queue length does an incoming req see
system.mem_ctrls.wrQLenPdf::38                      0                       # What write queue length does an incoming req see
system.mem_ctrls.wrQLenPdf::39                      0                       # What write queue length does an incoming req see
system.mem_ctrls.wrQLenPdf::40                      0                       # What write queue length does an incoming req see
system.mem_ctrls.wrQLenPdf::41                      0                       # What write queue length does an incoming req see
system.mem_ctrls.wrQLenPdf::42                      0                       # What write queue length does an incoming req see
system.mem_ctrls.wrQLenPdf::43                      0                       # What write queue length does an incoming req see
system.mem_ctrls.wrQLenPdf::44                      0                       # What write queue length does an incoming req see
system.mem_ctrls.wrQLenPdf::45                      0                       # What write queue length does an incoming req see
system.mem_ctrls.wrQLenPdf::46                      0                       # What write queue length does an incoming req see
system.mem_ctrls.wrQLenPdf::47                      0                       # What write queue length does an incoming req see
system.mem_ctrls.wrQLenPdf::48                      0                       # What write queue length does an incoming req see
system.mem_ctrls.wrQLenPdf::49                      0                       # What write queue length does an incoming req see
system.mem_ctrls.wrQLenPdf::50                      0                       # What write queue length does an incoming req see
system.mem_ctrls.wrQLenPdf::51                      0                       # What write queue length does an incoming req see
system.mem_ctrls.wrQLenPdf::52                      0                       # What write queue length does an incoming req see
system.mem_ctrls.wrQLenPdf::53                      0                       # What write queue length does an incoming req see
system.mem_ctrls.wrQLenPdf::54                      0                       # What write queue length does an incoming req see
system.mem_ctrls.wrQLenPdf::55                      0                       # What write queue length does an incoming req see
system.mem_ctrls.wrQLenPdf::56                      0                       # What write queue length does an incoming req see
system.mem_ctrls.wrQLenPdf::57                      0                       # What write queue length does an incoming req see
system.mem_ctrls.wrQLenPdf::58                      0                       # What write queue length does an incoming req see
system.mem_ctrls.wrQLenPdf::59                      0                       # What write queue length does an incoming req see
system.mem_ctrls.wrQLenPdf::60                      0                       # What write queue length does an incoming req see
system.mem_ctrls.wrQLenPdf::61                      0                       # What write queue length does an incoming req see
system.mem_ctrls.wrQLenPdf::62                      0                       # What write queue length does an incoming req see
system.mem_ctrls.wrQLenPdf::63                      0                       # What write queue length does an incoming req see
system.mem_ctrls.bytesPerActivate::samples      2027480                       # Bytes accessed per row activation
system.mem_ctrls.bytesPerActivate::mean    789.886480                       # Bytes accessed per row activation
system.mem_ctrls.bytesPerActivate::gmean   604.376936                       # Bytes accessed per row activation
system.mem_ctrls.bytesPerActivate::stdev   360.013412                       # Bytes accessed per row activation
system.mem_ctrls.bytesPerActivate::0-127       247825     12.22%     12.22% # Bytes accessed per row activation
system.mem_ctrls.bytesPerActivate::128-255        78299      3.86%     16.09% # Bytes accessed per row activation
system.mem_ctrls.bytesPerActivate::256-383        56823      2.80%     18.89% # Bytes accessed per row activation
system.mem_ctrls.bytesPerActivate::384-511        60025      2.96%     21.85% # Bytes accessed per row activation
system.mem_ctrls.bytesPerActivate::512-639       108086      5.33%     27.18% # Bytes accessed per row activation
system.mem_ctrls.bytesPerActivate::640-767        52322      2.58%     29.76% # Bytes accessed per row activation
system.mem_ctrls.bytesPerActivate::768-895        61911      3.05%     32.81% # Bytes accessed per row activation
system.mem_ctrls.bytesPerActivate::896-1023       102581      5.06%     37.87% # Bytes accessed per row activation
system.mem_ctrls.bytesPerActivate::1024-1151      1259608     62.13%    100.00% # Bytes accessed per row activation
system.mem_ctrls.bytesPerActivate::total      2027480                       # Bytes accessed per row activation
system.mem_ctrls.rdPerTurnAround::samples       521453                       # Reads before turning the bus around for writes
system.mem_ctrls.rdPerTurnAround::mean      31.970753                       # Reads before turning the bus around for writes
system.mem_ctrls.rdPerTurnAround::gmean     31.884576                       # Reads before turning the bus around for writes
system.mem_ctrls.rdPerTurnAround::stdev     32.649863                       # Reads before turning the bus around for writes
system.mem_ctrls.rdPerTurnAround::0-1023       521450    100.00%    100.00% # Reads before turning the bus around for writes
system.mem_ctrls.rdPerTurnAround::2048-3071            2      0.00%    100.00% # Reads before turning the bus around for writes
system.mem_ctrls.rdPerTurnAround::22528-23551            1      0.00%    100.00% # Reads before turning the bus around for writes
system.mem_ctrls.rdPerTurnAround::total        521453                       # Reads before turning the bus around for writes
system.mem_ctrls.wrPerTurnAround::samples       521453                       # Writes before turning the bus around for reads
system.mem_ctrls.wrPerTurnAround::mean      16.016487                       # Writes before turning the bus around for reads
system.mem_ctrls.wrPerTurnAround::gmean     16.015577                       # Writes before turning the bus around for reads
system.mem_ctrls.wrPerTurnAround::stdev      0.177393                       # Writes before turning the bus around for reads
system.mem_ctrls.wrPerTurnAround::16           516784     99.10%     99.10% # Writes before turning the bus around for reads
system.mem_ctrls.wrPerTurnAround::17              789      0.15%     99.26% # Writes before turning the bus around for reads
system.mem_ctrls.wrPerTurnAround::18             3833      0.74%     99.99% # Writes before turning the bus around for reads
system.mem_ctrls.wrPerTurnAround::19               46      0.01%    100.00% # Writes before turning the bus around for reads
system.mem_ctrls.wrPerTurnAround::20                1      0.00%    100.00% # Writes before turning the bus around for reads
system.mem_ctrls.wrPerTurnAround::total        521453                       # Writes before turning the bus around for reads
system.mem_ctrls.totQLat                 247991963000                       # Total ticks spent queuing
system.mem_ctrls.totMemAccLat            560578181750                       # Total ticks spent from burst creation until serviced by the DRAM
system.mem_ctrls.totBusLat                83356325000                       # Total ticks spent in databus transfers
system.mem_ctrls.avgQLat                     14875.41                       # Average queueing delay per DRAM burst
system.mem_ctrls.avgBusLat                    5000.00                       # Average bus latency per DRAM burst
system.mem_ctrls.avgMemAccLat                33625.41                       # Average memory access latency per DRAM burst
system.mem_ctrls.avgRdBW                       447.21                       # Average DRAM read bandwidth in MiByte/s
system.mem_ctrls.avgWrBW                       224.04                       # Average achieved write bandwidth in MiByte/s
system.mem_ctrls.avgRdBWSys                    223.60                       # Average system read bandwidth in MiByte/s
system.mem_ctrls.avgWrBWSys                    222.98                       # Average system write bandwidth in MiByte/s
system.mem_ctrls.peakBW                      12800.00                       # Theoretical peak bandwidth in MiByte/s
system.mem_ctrls.busUtil                         5.24                       # Data bus utilization in percentage
system.mem_ctrls.busUtilRead                     3.49                       # Data bus utilization in percentage for reads
system.mem_ctrls.busUtilWrite                    1.75                       # Data bus utilization in percentage for writes
system.mem_ctrls.avgRdQLen                       1.00                       # Average read queue length when enqueuing
system.mem_ctrls.avgWrQLen                      25.37                       # Average write queue length when enqueuing
system.mem_ctrls.readRowHits                 15300016                       # Number of row buffer hits during reads
system.mem_ctrls.writeRowHits                 7695614                       # Number of row buffer hits during writes
system.mem_ctrls.readRowHitRate                 91.77                       # Row buffer hit rate for reads
system.mem_ctrls.writeRowHitRate                92.14                       # Row buffer hit rate for writes
system.mem_ctrls.avgGap                      71654.21                       # Average gap between requests
system.mem_ctrls.pageHitRate                    91.90                       # Row buffer hit rate, read and write combined
system.mem_ctrls_0.actEnergy               7242002040                       # Energy for activate commands per rank (pJ)
system.mem_ctrls_0.preEnergy               3849215370                       # Energy for precharge commands per rank (pJ)
system.mem_ctrls_0.readEnergy             59511136020                       # Energy for read commands per rank (pJ)
system.mem_ctrls_0.writeEnergy            21796772940                       # Energy for write commands per rank (pJ)
system.mem_ctrls_0.refreshEnergy         113990519760.000031                       # Energy for refresh commands per rank (pJ)
system.mem_ctrls_0.actBackEnergy         148627165410                       # Energy for active background per rank (pJ)
system.mem_ctrls_0.preBackEnergy           8839976160                       # Energy for precharge background per rank (pJ)
system.mem_ctrls_0.actPowerDownEnergy    296193087150                       # Energy for active power-down per rank (pJ)
system.mem_ctrls_0.prePowerDownEnergy     95115132480                       # Energy for precharge power-down per rank (pJ)
system.mem_ctrls_0.selfRefreshEnergy     288586236870                       # Energy for self refresh per rank (pJ)
system.mem_ctrls_0.totalEnergy           1043776990860                       # Total energy per rank (pJ)
system.mem_ctrls_0.averagePower            437.490469                       # Core power per rank (mW)
system.mem_ctrls_0.totalIdleTime         2036779016000                       # Total Idle time Per DRAM Rank
system.mem_ctrls_0.memoryStateTime::IDLE   9925489500                       # Time in different power states
system.mem_ctrls_0.memoryStateTime::REF   48400252000                       # Time in different power states
system.mem_ctrls_0.memoryStateTime::SREF 1139569867250                       # Time in different power states
system.mem_ctrls_0.memoryStateTime::PRE_PDN 247698682500                       # Time in different power states
system.mem_ctrls_0.memoryStateTime::ACT  290708469250                       # Time in different power states
system.mem_ctrls_0.memoryStateTime::ACT_PDN 649525192000                       # Time in different power states
system.mem_ctrls_1.actEnergy               7234205160                       # Energy for activate commands per rank (pJ)
system.mem_ctrls_1.preEnergy               3845071230                       # Energy for precharge commands per rank (pJ)
system.mem_ctrls_1.readEnergy             59521696080                       # Energy for read commands per rank (pJ)
system.mem_ctrls_1.writeEnergy            21799857960                       # Energy for write commands per rank (pJ)
system.mem_ctrls_1.refreshEnergy         113515403040.000031                       # Energy for refresh commands per rank (pJ)
system.mem_ctrls_1.actBackEnergy         148817334510                       # Energy for active background per rank (pJ)
system.mem_ctrls_1.preBackEnergy           8815901280                       # Energy for precharge background per rank (pJ)
system.mem_ctrls_1.actPowerDownEnergy    295085475690                       # Energy for active power-down per rank (pJ)
system.mem_ctrls_1.prePowerDownEnergy     94284299520                       # Energy for precharge power-down per rank (pJ)
system.mem_ctrls_1.selfRefreshEnergy     289466982375                       # Energy for self refresh per rank (pJ)
system.mem_ctrls_1.totalEnergy           1042410077415                       # Total energy per rank (pJ)
system.mem_ctrls_1.averagePower            436.917537                       # Core power per rank (mW)
system.mem_ctrls_1.totalIdleTime         2036433309000                       # Total Idle time Per DRAM Rank
system.mem_ctrls_1.memoryStateTime::IDLE   9870020500                       # Time in different power states
system.mem_ctrls_1.memoryStateTime::REF   48197742000                       # Time in different power states
system.mem_ctrls_1.memoryStateTime::SREF 1143812327250                       # Time in different power states
system.mem_ctrls_1.memoryStateTime::PRE_PDN 245535046500                       # Time in different power states
system.mem_ctrls_1.memoryStateTime::ACT  291316951000                       # Time in different power states
system.mem_ctrls_1.memoryStateTime::ACT_PDN 647095865250                       # Time in different power states
system.pwrStateResidencyTicks::UNDEFINED 2385827952500                       # Cumulative time (in ticks) in various power states
system.cpu_voltage_domain.voltage                   1                       # Voltage in Volts
system.cpu_clk_domain.clock                       500                       # Clock period in ticks
system.cpu.dtb.walker.pwrStateResidencyTicks::UNDEFINED 2385827952500                       # Cumulative time (in ticks) in various power states
system.cpu.apic_clk_domain.clock                 8000                       # Clock period in ticks
system.cpu.interrupts.pwrStateResidencyTicks::UNDEFINED 2385827952500                       # Cumulative time (in ticks) in various power states
system.cpu.itb.walker.pwrStateResidencyTicks::UNDEFINED 2385827952500                       # Cumulative time (in ticks) in various power states
system.cpu.workload.num_syscalls                  196                       # Number of system calls
system.cpu.pwrStateResidencyTicks::ON    2385827952500                       # Cumulative time (in ticks) in various power states
system.cpu.numCycles                       4771655905                       # number of cpu cycles simulated
system.cpu.numWorkItemsStarted                      0                       # number of work items this cpu started
system.cpu.numWorkItemsCompleted                    0                       # number of work items this cpu completed
system.cpu.committedInsts                   500000000                       # Number of instructions committed
system.cpu.committedOps                     823366692                       # Number of ops (including micro ops) committed
system.cpu.num_int_alu_accesses             821415783                       # Number of integer alu accesses
system.cpu.num_fp_alu_accesses               66619246                       # Number of float alu accesses
system.cpu.num_func_calls                     5652773                       # number of times a function call or return occured
system.cpu.num_conditional_control_insts     57208853                       # number of instructions that are conditional controls
system.cpu.num_int_insts                    821415783                       # number of integer instructions
system.cpu.num_fp_insts                      66619246                       # number of float instructions
system.cpu.num_int_register_reads          1637209917                       # number of times the integer registers were read
system.cpu.num_int_register_writes          639871082                       # number of times the integer registers were written
system.cpu.num_fp_register_reads             66766836                       # number of times the floating registers were read
system.cpu.num_fp_register_writes              208042                       # number of times the floating registers were written
system.cpu.num_cc_register_reads            319714243                       # number of times the CC registers were read
system.cpu.num_cc_register_writes           287984022                       # number of times the CC registers were written
system.cpu.num_mem_refs                     271673939                       # number of memory refs
system.cpu.num_load_insts                   157213791                       # Number of load instructions
system.cpu.num_store_insts                  114460148                       # Number of store instructions
system.cpu.num_idle_cycles                          0                       # Number of idle cycles
system.cpu.num_busy_cycles                 4771655905                       # Number of busy cycles
system.cpu.not_idle_fraction                        1                       # Percentage of non-idle cycles
system.cpu.idle_fraction                            0                       # Percentage of idle cycles
system.cpu.Branches                          69678400                       # Number of branches fetched
system.cpu.op_class::No_OpClass                202234      0.02%      0.02% # Class of executed instruction
system.cpu.op_class::IntAlu                 550028817     66.80%     66.83% # Class of executed instruction
system.cpu.op_class::IntMult                   125092      0.02%     66.84% # Class of executed instruction
system.cpu.op_class::IntDiv                   1153479      0.14%     66.98% # Class of executed instruction
system.cpu.op_class::FloatAdd                  183131      0.02%     67.00% # Class of executed instruction
system.cpu.op_class::FloatCmp                       0      0.00%     67.00% # Class of executed instruction
system.cpu.op_class::FloatCvt                       0      0.00%     67.00% # Class of executed instruction
system.cpu.op_class::FloatMult                      0      0.00%     67.00% # Class of executed instruction
system.cpu.op_class::FloatDiv                       0      0.00%     67.00% # Class of executed instruction
system.cpu.op_class::FloatSqrt                      0      0.00%     67.00% # Class of executed instruction
system.cpu.op_class::SimdAdd                        0      0.00%     67.00% # Class of executed instruction
system.cpu.op_class::SimdAddAcc                     0      0.00%     67.00% # Class of executed instruction
system.cpu.op_class::SimdAlu                        0      0.00%     67.00% # Class of executed instruction
system.cpu.op_class::SimdCmp                        0      0.00%     67.00% # Class of executed instruction
system.cpu.op_class::SimdCvt                        0      0.00%     67.00% # Class of executed instruction
system.cpu.op_class::SimdMisc                       0      0.00%     67.00% # Class of executed instruction
system.cpu.op_class::SimdMult                       0      0.00%     67.00% # Class of executed instruction
system.cpu.op_class::SimdMultAcc                    0      0.00%     67.00% # Class of executed instruction
system.cpu.op_class::SimdShift                      0      0.00%     67.00% # Class of executed instruction
system.cpu.op_class::SimdShiftAcc                   0      0.00%     67.00% # Class of executed instruction
system.cpu.op_class::SimdSqrt                       0      0.00%     67.00% # Class of executed instruction
system.cpu.op_class::SimdFloatAdd                   0      0.00%     67.00% # Class of executed instruction
system.cpu.op_class::SimdFloatAlu                   0      0.00%     67.00% # Class of executed instruction
system.cpu.op_class::SimdFloatCmp                   0      0.00%     67.00% # Class of executed instruction
system.cpu.op_class::SimdFloatCvt                   0      0.00%     67.00% # Class of executed instruction
system.cpu.op_class::SimdFloatDiv                   0      0.00%     67.00% # Class of executed instruction
system.cpu.op_class::SimdFloatMisc                  0      0.00%     67.00% # Class of executed instruction
system.cpu.op_class::SimdFloatMult                  0      0.00%     67.00% # Class of executed instruction
system.cpu.op_class::SimdFloatMultAcc               0      0.00%     67.00% # Class of executed instruction
system.cpu.op_class::SimdFloatSqrt                  0      0.00%     67.00% # Class of executed instruction
system.cpu.op_class::MemRead                157213791     19.09%     86.10% # Class of executed instruction
system.cpu.op_class::MemWrite               114460148     13.90%    100.00% # Class of executed instruction
system.cpu.op_class::IprAccess                      0      0.00%    100.00% # Class of executed instruction
system.cpu.op_class::InstPrefetch                   0      0.00%    100.00% # Class of executed instruction
system.cpu.op_class::total                  823366692                       # Class of executed instruction
system.cpu.dcache.tags.pwrStateResidencyTicks::UNDEFINED 2385827952500                       # Cumulative time (in ticks) in various power states
system.cpu.dcache.tags.replacements          16704261                       # number of replacements
system.cpu.dcache.tags.tagsinuse          4091.669077                       # Cycle average of tags in use
system.cpu.dcache.tags.total_refs           254966199                       # Total number of references to valid blocks.
system.cpu.dcache.tags.sampled_refs          16708357                       # Sample count of references to valid blocks.
system.cpu.dcache.tags.avg_refs             15.259801                       # Average number of references to valid blocks.
system.cpu.dcache.tags.warmup_cycle        8174939500                       # Cycle when the warmup percentage was hit.
system.cpu.dcache.tags.occ_blocks::cpu.data  4091.669077                       # Average occupied blocks per requestor
system.cpu.dcache.tags.occ_percent::cpu.data     0.998943                       # Average percentage of cache occupancy
system.cpu.dcache.tags.occ_percent::total     0.998943                       # Average percentage of cache occupancy
system.cpu.dcache.tags.occ_task_id_blocks::1024         4096                       # Occupied blocks per task id
system.cpu.dcache.tags.age_task_id_blocks_1024::1           21                       # Occupied blocks per task id
system.cpu.dcache.tags.age_task_id_blocks_1024::2          111                       # Occupied blocks per task id
system.cpu.dcache.tags.age_task_id_blocks_1024::3          966                       # Occupied blocks per task id
system.cpu.dcache.tags.age_task_id_blocks_1024::4         2998                       # Occupied blocks per task id
system.cpu.dcache.tags.occ_task_id_percent::1024            1                       # Percentage of cache occupancy per task id
system.cpu.dcache.tags.tag_accesses         560057469                       # Number of tag accesses
system.cpu.dcache.tags.data_accesses        560057469                       # Number of data accesses
system.cpu.dcache.pwrStateResidencyTicks::UNDEFINED 2385827952500                       # Cumulative time (in ticks) in various power states
system.cpu.dcache.ReadReq_hits::cpu.data    157108866                       # number of ReadReq hits
system.cpu.dcache.ReadReq_hits::total       157108866                       # number of ReadReq hits
system.cpu.dcache.WriteReq_hits::cpu.data     97857333                       # number of WriteReq hits
system.cpu.dcache.WriteReq_hits::total       97857333                       # number of WriteReq hits
system.cpu.dcache.demand_hits::cpu.data     254966199                       # number of demand (read+write) hits
system.cpu.dcache.demand_hits::total        254966199                       # number of demand (read+write) hits
system.cpu.dcache.overall_hits::cpu.data    254966199                       # number of overall hits
system.cpu.dcache.overall_hits::total       254966199                       # number of overall hits
system.cpu.dcache.ReadReq_misses::cpu.data       105529                       # number of ReadReq misses
system.cpu.dcache.ReadReq_misses::total        105529                       # number of ReadReq misses
system.cpu.dcache.WriteReq_misses::cpu.data     16602828                       # number of WriteReq misses
system.cpu.dcache.WriteReq_misses::total     16602828                       # number of WriteReq misses
system.cpu.dcache.demand_misses::cpu.data     16708357                       # number of demand (read+write) misses
system.cpu.dcache.demand_misses::total       16708357                       # number of demand (read+write) misses
system.cpu.dcache.overall_misses::cpu.data     16708357                       # number of overall misses
system.cpu.dcache.overall_misses::total      16708357                       # number of overall misses
system.cpu.dcache.ReadReq_miss_latency::cpu.data  25493183500                       # number of ReadReq miss cycles
system.cpu.dcache.ReadReq_miss_latency::total  25493183500                       # number of ReadReq miss cycles
system.cpu.dcache.WriteReq_miss_latency::cpu.data 1423224501000                       # number of WriteReq miss cycles
system.cpu.dcache.WriteReq_miss_latency::total 1423224501000                       # number of WriteReq miss cycles
system.cpu.dcache.demand_miss_latency::cpu.data 1448717684500                       # number of demand (read+write) miss cycles
system.cpu.dcache.demand_miss_latency::total 1448717684500                       # number of demand (read+write) miss cycles
system.cpu.dcache.overall_miss_latency::cpu.data 1448717684500                       # number of overall miss cycles
system.cpu.dcache.overall_miss_latency::total 1448717684500                       # number of overall miss cycles
system.cpu.dcache.ReadReq_accesses::cpu.data    157214395                       # number of ReadReq accesses(hits+misses)
system.cpu.dcache.ReadReq_accesses::total    157214395                       # number of ReadReq accesses(hits+misses)
system.cpu.dcache.WriteReq_accesses::cpu.data    114460161                       # number of WriteReq accesses(hits+misses)
system.cpu.dcache.WriteReq_accesses::total    114460161                       # number of WriteReq accesses(hits+misses)
system.cpu.dcache.demand_accesses::cpu.data    271674556                       # number of demand (read+write) accesses
system.cpu.dcache.demand_accesses::total    271674556                       # number of demand (read+write) accesses
system.cpu.dcache.overall_accesses::cpu.data    271674556                       # number of overall (read+write) accesses
system.cpu.dcache.overall_accesses::total    271674556                       # number of overall (read+write) accesses
system.cpu.dcache.ReadReq_miss_rate::cpu.data     0.000671                       # miss rate for ReadReq accesses
system.cpu.dcache.ReadReq_miss_rate::total     0.000671                       # miss rate for ReadReq accesses
system.cpu.dcache.WriteReq_miss_rate::cpu.data     0.145053                       # miss rate for WriteReq accesses
system.cpu.dcache.WriteReq_miss_rate::total     0.145053                       # miss rate for WriteReq accesses
system.cpu.dcache.demand_miss_rate::cpu.data     0.061501                       # miss rate for demand accesses
system.cpu.dcache.demand_miss_rate::total     0.061501                       # miss rate for demand accesses
system.cpu.dcache.overall_miss_rate::cpu.data     0.061501                       # miss rate for overall accesses
system.cpu.dcache.overall_miss_rate::total     0.061501                       # miss rate for overall accesses
system.cpu.dcache.ReadReq_avg_miss_latency::cpu.data 241575.145221                       # average ReadReq miss latency
system.cpu.dcache.ReadReq_avg_miss_latency::total 241575.145221                       # average ReadReq miss latency
system.cpu.dcache.WriteReq_avg_miss_latency::cpu.data 85721.812031                       # average WriteReq miss latency
system.cpu.dcache.WriteReq_avg_miss_latency::total 85721.812031                       # average WriteReq miss latency
system.cpu.dcache.demand_avg_miss_latency::cpu.data 86706.172516                       # average overall miss latency
system.cpu.dcache.demand_avg_miss_latency::total 86706.172516                       # average overall miss latency
system.cpu.dcache.overall_avg_miss_latency::cpu.data 86706.172516                       # average overall miss latency
system.cpu.dcache.overall_avg_miss_latency::total 86706.172516                       # average overall miss latency
system.cpu.dcache.blocked_cycles::no_mshrs            0                       # number of cycles access was blocked
system.cpu.dcache.blocked_cycles::no_targets            0                       # number of cycles access was blocked
system.cpu.dcache.blocked::no_mshrs                 0                       # number of cycles access was blocked
system.cpu.dcache.blocked::no_targets               0                       # number of cycles access was blocked
system.cpu.dcache.avg_blocked_cycles::no_mshrs          nan                       # average number of cycles each access was blocked
system.cpu.dcache.avg_blocked_cycles::no_targets          nan                       # average number of cycles each access was blocked
system.cpu.dcache.writebacks::writebacks     16677765                       # number of writebacks
system.cpu.dcache.writebacks::total          16677765                       # number of writebacks
system.cpu.dcache.ReadReq_mshr_misses::cpu.data       105529                       # number of ReadReq MSHR misses
system.cpu.dcache.ReadReq_mshr_misses::total       105529                       # number of ReadReq MSHR misses
system.cpu.dcache.WriteReq_mshr_misses::cpu.data     16602828                       # number of WriteReq MSHR misses
system.cpu.dcache.WriteReq_mshr_misses::total     16602828                       # number of WriteReq MSHR misses
system.cpu.dcache.demand_mshr_misses::cpu.data     16708357                       # number of demand (read+write) MSHR misses
system.cpu.dcache.demand_mshr_misses::total     16708357                       # number of demand (read+write) MSHR misses
system.cpu.dcache.overall_mshr_misses::cpu.data     16708357                       # number of overall MSHR misses
system.cpu.dcache.overall_mshr_misses::total     16708357                       # number of overall MSHR misses
system.cpu.dcache.ReadReq_mshr_miss_latency::cpu.data  25387654500                       # number of ReadReq MSHR miss cycles
system.cpu.dcache.ReadReq_mshr_miss_latency::total  25387654500                       # number of ReadReq MSHR miss cycles
system.cpu.dcache.WriteReq_mshr_miss_latency::cpu.data 1406621673000                       # number of WriteReq MSHR miss cycles
system.cpu.dcache.WriteReq_mshr_miss_latency::total 1406621673000                       # number of WriteReq MSHR miss cycles
system.cpu.dcache.demand_mshr_miss_latency::cpu.data 1432009327500                       # number of demand (read+write) MSHR miss cycles
system.cpu.dcache.demand_mshr_miss_latency::total 1432009327500                       # number of demand (read+write) MSHR miss cycles
system.cpu.dcache.overall_mshr_miss_latency::cpu.data 1432009327500                       # number of overall MSHR miss cycles
system.cpu.dcache.overall_mshr_miss_latency::total 1432009327500                       # number of overall MSHR miss cycles
system.cpu.dcache.ReadReq_mshr_miss_rate::cpu.data     0.000671                       # mshr miss rate for ReadReq accesses
system.cpu.dcache.ReadReq_mshr_miss_rate::total     0.000671                       # mshr miss rate for ReadReq accesses
system.cpu.dcache.WriteReq_mshr_miss_rate::cpu.data     0.145053                       # mshr miss rate for WriteReq accesses
system.cpu.dcache.WriteReq_mshr_miss_rate::total     0.145053                       # mshr miss rate for WriteReq accesses
system.cpu.dcache.demand_mshr_miss_rate::cpu.data     0.061501                       # mshr miss rate for demand accesses
system.cpu.dcache.demand_mshr_miss_rate::total     0.061501                       # mshr miss rate for demand accesses
system.cpu.dcache.overall_mshr_miss_rate::cpu.data     0.061501                       # mshr miss rate for overall accesses
system.cpu.dcache.overall_mshr_miss_rate::total     0.061501                       # mshr miss rate for overall accesses
system.cpu.dcache.ReadReq_avg_mshr_miss_latency::cpu.data 240575.145221                       # average ReadReq mshr miss latency
system.cpu.dcache.ReadReq_avg_mshr_miss_latency::total 240575.145221                       # average ReadReq mshr miss latency
system.cpu.dcache.WriteReq_avg_mshr_miss_latency::cpu.data 84721.812031                       # average WriteReq mshr miss latency
system.cpu.dcache.WriteReq_avg_mshr_miss_latency::total 84721.812031                       # average WriteReq mshr miss latency
system.cpu.dcache.demand_avg_mshr_miss_latency::cpu.data 85706.172516                       # average overall mshr miss latency
system.cpu.dcache.demand_avg_mshr_miss_latency::total 85706.172516                       # average overall mshr miss latency
system.cpu.dcache.overall_avg_mshr_miss_latency::cpu.data 85706.172516                       # average overall mshr miss latency
system.cpu.dcache.overall_avg_mshr_miss_latency::total 85706.172516                       # average overall mshr miss latency
system.cpu.dtb_walker_cache.tags.pwrStateResidencyTicks::UNDEFINED 2385827952500                       # Cumulative time (in ticks) in various power states
system.cpu.dtb_walker_cache.tags.replacements            0                       # number of replacements
system.cpu.dtb_walker_cache.tags.tagsinuse            0                       # Cycle average of tags in use
system.cpu.dtb_walker_cache.tags.total_refs            0                       # Total number of references to valid blocks.
system.cpu.dtb_walker_cache.tags.sampled_refs            0                       # Sample count of references to valid blocks.
system.cpu.dtb_walker_cache.tags.avg_refs          nan                       # Average number of references to valid blocks.
system.cpu.dtb_walker_cache.tags.warmup_cycle            0                       # Cycle when the warmup percentage was hit.
system.cpu.dtb_walker_cache.tags.tag_accesses            0                       # Number of tag accesses
system.cpu.dtb_walker_cache.tags.data_accesses            0                       # Number of data accesses
system.cpu.dtb_walker_cache.pwrStateResidencyTicks::UNDEFINED 2385827952500                       # Cumulative time (in ticks) in various power states
system.cpu.dtb_walker_cache.blocked_cycles::no_mshrs            0                       # number of cycles access was blocked
system.cpu.dtb_walker_cache.blocked_cycles::no_targets            0                       # number of cycles access was blocked
system.cpu.dtb_walker_cache.blocked::no_mshrs            0                       # number of cycles access was blocked
system.cpu.dtb_walker_cache.blocked::no_targets            0                       # number of cycles access was blocked
system.cpu.dtb_walker_cache.avg_blocked_cycles::no_mshrs          nan                       # average number of cycles each access was blocked
system.cpu.dtb_walker_cache.avg_blocked_cycles::no_targets          nan                       # average number of cycles each access was blocked
system.cpu.icache.tags.pwrStateResidencyTicks::UNDEFINED 2385827952500                       # Cumulative time (in ticks) in various power states
system.cpu.icache.tags.replacements            534824                       # number of replacements
system.cpu.icache.tags.tagsinuse          1235.176374                       # Cycle average of tags in use
system.cpu.icache.tags.total_refs           674816946                       # Total number of references to valid blocks.
system.cpu.icache.tags.sampled_refs            536711                       # Sample count of references to valid blocks.
system.cpu.icache.tags.avg_refs           1257.319015                       # Average number of references to valid blocks.
system.cpu.icache.tags.warmup_cycle                 0                       # Cycle when the warmup percentage was hit.
system.cpu.icache.tags.occ_blocks::cpu.inst  1235.176374                       # Average occupied blocks per requestor
system.cpu.icache.tags.occ_percent::cpu.inst     0.603113                       # Average percentage of cache occupancy
system.cpu.icache.tags.occ_percent::total     0.603113                       # Average percentage of cache occupancy
system.cpu.icache.tags.occ_task_id_blocks::1024         1887                       # Occupied blocks per task id
system.cpu.icache.tags.age_task_id_blocks_1024::1           67                       # Occupied blocks per task id
system.cpu.icache.tags.age_task_id_blocks_1024::2           32                       # Occupied blocks per task id
system.cpu.icache.tags.age_task_id_blocks_1024::3           45                       # Occupied blocks per task id
system.cpu.icache.tags.age_task_id_blocks_1024::4         1743                       # Occupied blocks per task id
system.cpu.icache.tags.occ_task_id_percent::1024     0.921387                       # Percentage of cache occupancy per task id
system.cpu.icache.tags.tag_accesses        1351244025                       # Number of tag accesses
system.cpu.icache.tags.data_accesses       1351244025                       # Number of data accesses
system.cpu.icache.pwrStateResidencyTicks::UNDEFINED 2385827952500                       # Cumulative time (in ticks) in various power states
system.cpu.icache.ReadReq_hits::cpu.inst    674816946                       # number of ReadReq hits
system.cpu.icache.ReadReq_hits::total       674816946                       # number of ReadReq hits
system.cpu.icache.demand_hits::cpu.inst     674816946                       # number of demand (read+write) hits
system.cpu.icache.demand_hits::total        674816946                       # number of demand (read+write) hits
system.cpu.icache.overall_hits::cpu.inst    674816946                       # number of overall hits
system.cpu.icache.overall_hits::total       674816946                       # number of overall hits
system.cpu.icache.ReadReq_misses::cpu.inst       536711                       # number of ReadReq misses
system.cpu.icache.ReadReq_misses::total        536711                       # number of ReadReq misses
system.cpu.icache.demand_misses::cpu.inst       536711                       # number of demand (read+write) misses
system.cpu.icache.demand_misses::total         536711                       # number of demand (read+write) misses
system.cpu.icache.overall_misses::cpu.inst       536711                       # number of overall misses
system.cpu.icache.overall_misses::total        536711                       # number of overall misses
system.cpu.icache.ReadReq_miss_latency::cpu.inst   7327550500                       # number of ReadReq miss cycles
system.cpu.icache.ReadReq_miss_latency::total   7327550500                       # number of ReadReq miss cycles
system.cpu.icache.demand_miss_latency::cpu.inst   7327550500                       # number of demand (read+write) miss cycles
system.cpu.icache.demand_miss_latency::total   7327550500                       # number of demand (read+write) miss cycles
system.cpu.icache.overall_miss_latency::cpu.inst   7327550500                       # number of overall miss cycles
system.cpu.icache.overall_miss_latency::total   7327550500                       # number of overall miss cycles
system.cpu.icache.ReadReq_accesses::cpu.inst    675353657                       # number of ReadReq accesses(hits+misses)
system.cpu.icache.ReadReq_accesses::total    675353657                       # number of ReadReq accesses(hits+misses)
system.cpu.icache.demand_accesses::cpu.inst    675353657                       # number of demand (read+write) accesses
system.cpu.icache.demand_accesses::total    675353657                       # number of demand (read+write) accesses
system.cpu.icache.overall_accesses::cpu.inst    675353657                       # number of overall (read+write) accesses
system.cpu.icache.overall_accesses::total    675353657                       # number of overall (read+write) accesses
system.cpu.icache.ReadReq_miss_rate::cpu.inst     0.000795                       # miss rate for ReadReq accesses
system.cpu.icache.ReadReq_miss_rate::total     0.000795                       # miss rate for ReadReq accesses
system.cpu.icache.demand_miss_rate::cpu.inst     0.000795                       # miss rate for demand accesses
system.cpu.icache.demand_miss_rate::total     0.000795                       # miss rate for demand accesses
system.cpu.icache.overall_miss_rate::cpu.inst     0.000795                       # miss rate for overall accesses
system.cpu.icache.overall_miss_rate::total     0.000795                       # miss rate for overall accesses
system.cpu.icache.ReadReq_avg_miss_latency::cpu.inst 13652.692976                       # average ReadReq miss latency
system.cpu.icache.ReadReq_avg_miss_latency::total 13652.692976                       # average ReadReq miss latency
system.cpu.icache.demand_avg_miss_latency::cpu.inst 13652.692976                       # average overall miss latency
system.cpu.icache.demand_avg_miss_latency::total 13652.692976                       # average overall miss latency
system.cpu.icache.overall_avg_miss_latency::cpu.inst 13652.692976                       # average overall miss latency
system.cpu.icache.overall_avg_miss_latency::total 13652.692976                       # average overall miss latency
system.cpu.icache.blocked_cycles::no_mshrs            0                       # number of cycles access was blocked
system.cpu.icache.blocked_cycles::no_targets            0                       # number of cycles access was blocked
system.cpu.icache.blocked::no_mshrs                 0                       # number of cycles access was blocked
system.cpu.icache.blocked::no_targets               0                       # number of cycles access was blocked
system.cpu.icache.avg_blocked_cycles::no_mshrs          nan                       # average number of cycles each access was blocked
system.cpu.icache.avg_blocked_cycles::no_targets          nan                       # average number of cycles each access was blocked
system.cpu.icache.writebacks::writebacks       534824                       # number of writebacks
system.cpu.icache.writebacks::total            534824                       # number of writebacks
system.cpu.icache.ReadReq_mshr_misses::cpu.inst       536711                       # number of ReadReq MSHR misses
system.cpu.icache.ReadReq_mshr_misses::total       536711                       # number of ReadReq MSHR misses
system.cpu.icache.demand_mshr_misses::cpu.inst       536711                       # number of demand (read+write) MSHR misses
system.cpu.icache.demand_mshr_misses::total       536711                       # number of demand (read+write) MSHR misses
system.cpu.icache.overall_mshr_misses::cpu.inst       536711                       # number of overall MSHR misses
system.cpu.icache.overall_mshr_misses::total       536711                       # number of overall MSHR misses
system.cpu.icache.ReadReq_mshr_miss_latency::cpu.inst   6790839500                       # number of ReadReq MSHR miss cycles
system.cpu.icache.ReadReq_mshr_miss_latency::total   6790839500                       # number of ReadReq MSHR miss cycles
system.cpu.icache.demand_mshr_miss_latency::cpu.inst   6790839500                       # number of demand (read+write) MSHR miss cycles
system.cpu.icache.demand_mshr_miss_latency::total   6790839500                       # number of demand (read+write) MSHR miss cycles
system.cpu.icache.overall_mshr_miss_latency::cpu.inst   6790839500                       # number of overall MSHR miss cycles
system.cpu.icache.overall_mshr_miss_latency::total   6790839500                       # number of overall MSHR miss cycles
system.cpu.icache.ReadReq_mshr_miss_rate::cpu.inst     0.000795                       # mshr miss rate for ReadReq accesses
system.cpu.icache.ReadReq_mshr_miss_rate::total     0.000795                       # mshr miss rate for ReadReq accesses
system.cpu.icache.demand_mshr_miss_rate::cpu.inst     0.000795                       # mshr miss rate for demand accesses
system.cpu.icache.demand_mshr_miss_rate::total     0.000795                       # mshr miss rate for demand accesses
system.cpu.icache.overall_mshr_miss_rate::cpu.inst     0.000795                       # mshr miss rate for overall accesses
system.cpu.icache.overall_mshr_miss_rate::total     0.000795                       # mshr miss rate for overall accesses
system.cpu.icache.ReadReq_avg_mshr_miss_latency::cpu.inst 12652.692976                       # average ReadReq mshr miss latency
system.cpu.icache.ReadReq_avg_mshr_miss_latency::total 12652.692976                       # average ReadReq mshr miss latency
system.cpu.icache.demand_avg_mshr_miss_latency::cpu.inst 12652.692976                       # average overall mshr miss latency
system.cpu.icache.demand_avg_mshr_miss_latency::total 12652.692976                       # average overall mshr miss latency
system.cpu.icache.overall_avg_mshr_miss_latency::cpu.inst 12652.692976                       # average overall mshr miss latency
system.cpu.icache.overall_avg_mshr_miss_latency::total 12652.692976                       # average overall mshr miss latency
system.cpu.itb_walker_cache.tags.pwrStateResidencyTicks::UNDEFINED 2385827952500                       # Cumulative time (in ticks) in various power states
system.cpu.itb_walker_cache.tags.replacements            0                       # number of replacements
system.cpu.itb_walker_cache.tags.tagsinuse            0                       # Cycle average of tags in use
system.cpu.itb_walker_cache.tags.total_refs            0                       # Total number of references to valid blocks.
system.cpu.itb_walker_cache.tags.sampled_refs            0                       # Sample count of references to valid blocks.
system.cpu.itb_walker_cache.tags.avg_refs          nan                       # Average number of references to valid blocks.
system.cpu.itb_walker_cache.tags.warmup_cycle            0                       # Cycle when the warmup percentage was hit.
system.cpu.itb_walker_cache.tags.tag_accesses            0                       # Number of tag accesses
system.cpu.itb_walker_cache.tags.data_accesses            0                       # Number of data accesses
system.cpu.itb_walker_cache.pwrStateResidencyTicks::UNDEFINED 2385827952500                       # Cumulative time (in ticks) in various power states
system.cpu.itb_walker_cache.blocked_cycles::no_mshrs            0                       # number of cycles access was blocked
system.cpu.itb_walker_cache.blocked_cycles::no_targets            0                       # number of cycles access was blocked
system.cpu.itb_walker_cache.blocked::no_mshrs            0                       # number of cycles access was blocked
system.cpu.itb_walker_cache.blocked::no_targets            0                       # number of cycles access was blocked
system.cpu.itb_walker_cache.avg_blocked_cycles::no_mshrs          nan                       # average number of cycles each access was blocked
system.cpu.itb_walker_cache.avg_blocked_cycles::no_targets          nan                       # average number of cycles each access was blocked
system.l2.tags.pwrStateResidencyTicks::UNDEFINED 2385827952500                       # Cumulative time (in ticks) in various power states
system.l2.tags.replacements                  16645574                       # number of replacements
system.l2.tags.tagsinuse                 32655.591002                       # Cycle average of tags in use
system.l2.tags.total_refs                    17804355                       # Total number of references to valid blocks.
system.l2.tags.sampled_refs                  16678342                       # Sample count of references to valid blocks.
system.l2.tags.avg_refs                      1.067513                       # Average number of references to valid blocks.
system.l2.tags.warmup_cycle               11057685000                       # Cycle when the warmup percentage was hit.
system.l2.tags.occ_blocks::writebacks      444.194151                       # Average occupied blocks per requestor
system.l2.tags.occ_blocks::cpu.inst        289.556191                       # Average occupied blocks per requestor
system.l2.tags.occ_blocks::cpu.data      31921.840660                       # Average occupied blocks per requestor
system.l2.tags.occ_percent::writebacks       0.013556                       # Average percentage of cache occupancy
system.l2.tags.occ_percent::cpu.inst         0.008837                       # Average percentage of cache occupancy
system.l2.tags.occ_percent::cpu.data         0.974177                       # Average percentage of cache occupancy
system.l2.tags.occ_percent::total            0.996570                       # Average percentage of cache occupancy
system.l2.tags.occ_task_id_blocks::1024         32768                       # Occupied blocks per task id
system.l2.tags.age_task_id_blocks_1024::1            7                       # Occupied blocks per task id
system.l2.tags.age_task_id_blocks_1024::2           97                       # Occupied blocks per task id
system.l2.tags.age_task_id_blocks_1024::3          975                       # Occupied blocks per task id
system.l2.tags.age_task_id_blocks_1024::4        31689                       # Occupied blocks per task id
system.l2.tags.occ_task_id_percent::1024            1                       # Percentage of cache occupancy per task id
system.l2.tags.tag_accesses                  85646648                       # Number of tag accesses
system.l2.tags.data_accesses                 85646648                       # Number of data accesses
system.l2.pwrStateResidencyTicks::UNDEFINED 2385827952500                       # Cumulative time (in ticks) in various power states
system.l2.WritebackDirty_hits::writebacks     16677765                       # number of WritebackDirty hits
system.l2.WritebackDirty_hits::total         16677765                       # number of WritebackDirty hits
system.l2.WritebackClean_hits::writebacks       534824                       # number of WritebackClean hits
system.l2.WritebackClean_hits::total           534824                       # number of WritebackClean hits
system.l2.ReadExReq_hits::cpu.data              14860                       # number of ReadExReq hits
system.l2.ReadExReq_hits::total                 14860                       # number of ReadExReq hits
system.l2.ReadCleanReq_hits::cpu.inst          533398                       # number of ReadCleanReq hits
system.l2.ReadCleanReq_hits::total             533398                       # number of ReadCleanReq hits
system.l2.ReadSharedReq_hits::cpu.data          25526                       # number of ReadSharedReq hits
system.l2.ReadSharedReq_hits::total             25526                       # number of ReadSharedReq hits
system.l2.demand_hits::cpu.inst                533398                       # number of demand (read+write) hits
system.l2.demand_hits::cpu.data                 40386                       # number of demand (read+write) hits
system.l2.demand_hits::total                   573784                       # number of demand (read+write) hits
system.l2.overall_hits::cpu.inst               533398                       # number of overall hits
system.l2.overall_hits::cpu.data                40386                       # number of overall hits
system.l2.overall_hits::total                  573784                       # number of overall hits
system.l2.ReadExReq_misses::cpu.data         16587968                       # number of ReadExReq misses
system.l2.ReadExReq_misses::total            16587968                       # number of ReadExReq misses
system.l2.ReadCleanReq_misses::cpu.inst          3313                       # number of ReadCleanReq misses
system.l2.ReadCleanReq_misses::total             3313                       # number of ReadCleanReq misses
system.l2.ReadSharedReq_misses::cpu.data        80003                       # number of ReadSharedReq misses
system.l2.ReadSharedReq_misses::total           80003                       # number of ReadSharedReq misses
system.l2.demand_misses::cpu.inst                3313                       # number of demand (read+write) misses
system.l2.demand_misses::cpu.data            16667971                       # number of demand (read+write) misses
system.l2.demand_misses::total               16671284                       # number of demand (read+write) misses
system.l2.overall_misses::cpu.inst               3313                       # number of overall misses
system.l2.overall_misses::cpu.data           16667971                       # number of overall misses
system.l2.overall_misses::total              16671284                       # number of overall misses
system.l2.ReadExReq_miss_latency::cpu.data 1381561401000                       # number of ReadExReq miss cycles
system.l2.ReadExReq_miss_latency::total  1381561401000                       # number of ReadExReq miss cycles
system.l2.ReadCleanReq_miss_latency::cpu.inst    385094000                       # number of ReadCleanReq miss cycles
system.l2.ReadCleanReq_miss_latency::total    385094000                       # number of ReadCleanReq miss cycles
system.l2.ReadSharedReq_miss_latency::cpu.data  24961337500                       # number of ReadSharedReq miss cycles
system.l2.ReadSharedReq_miss_latency::total  24961337500                       # number of ReadSharedReq miss cycles
system.l2.demand_miss_latency::cpu.inst     385094000                       # number of demand (read+write) miss cycles
system.l2.demand_miss_latency::cpu.data  1406522738500                       # number of demand (read+write) miss cycles
system.l2.demand_miss_latency::total     1406907832500                       # number of demand (read+write) miss cycles
system.l2.overall_miss_latency::cpu.inst    385094000                       # number of overall miss cycles
system.l2.overall_miss_latency::cpu.data 1406522738500                       # number of overall miss cycles
system.l2.overall_miss_latency::total    1406907832500                       # number of overall miss cycles
system.l2.WritebackDirty_accesses::writebacks     16677765                       # number of WritebackDirty accesses(hits+misses)
system.l2.WritebackDirty_accesses::total     16677765                       # number of WritebackDirty accesses(hits+misses)
system.l2.WritebackClean_accesses::writebacks       534824                       # number of WritebackClean accesses(hits+misses)
system.l2.WritebackClean_accesses::total       534824                       # number of WritebackClean accesses(hits+misses)
system.l2.ReadExReq_accesses::cpu.data       16602828                       # number of ReadExReq accesses(hits+misses)
system.l2.ReadExReq_accesses::total          16602828                       # number of ReadExReq accesses(hits+misses)
system.l2.ReadCleanReq_accesses::cpu.inst       536711                       # number of ReadCleanReq accesses(hits+misses)
system.l2.ReadCleanReq_accesses::total         536711                       # number of ReadCleanReq accesses(hits+misses)
system.l2.ReadSharedReq_accesses::cpu.data       105529                       # number of ReadSharedReq accesses(hits+misses)
system.l2.ReadSharedReq_accesses::total        105529                       # number of ReadSharedReq accesses(hits+misses)
system.l2.demand_accesses::cpu.inst            536711                       # number of demand (read+write) accesses
system.l2.demand_accesses::cpu.data          16708357                       # number of demand (read+write) accesses
system.l2.demand_accesses::total             17245068                       # number of demand (read+write) accesses
system.l2.overall_accesses::cpu.inst           536711                       # number of overall (read+write) accesses
system.l2.overall_accesses::cpu.data         16708357                       # number of overall (read+write) accesses
system.l2.overall_accesses::total            17245068                       # number of overall (read+write) accesses
system.l2.ReadExReq_miss_rate::cpu.data      0.999105                       # miss rate for ReadExReq accesses
system.l2.ReadExReq_miss_rate::total         0.999105                       # miss rate for ReadExReq accesses
system.l2.ReadCleanReq_miss_rate::cpu.inst     0.006173                       # miss rate for ReadCleanReq accesses
system.l2.ReadCleanReq_miss_rate::total      0.006173                       # miss rate for ReadCleanReq accesses
system.l2.ReadSharedReq_miss_rate::cpu.data     0.758114                       # miss rate for ReadSharedReq accesses
system.l2.ReadSharedReq_miss_rate::total     0.758114                       # miss rate for ReadSharedReq accesses
system.l2.demand_miss_rate::cpu.inst         0.006173                       # miss rate for demand accesses
system.l2.demand_miss_rate::cpu.data         0.997583                       # miss rate for demand accesses
system.l2.demand_miss_rate::total            0.966728                       # miss rate for demand accesses
system.l2.overall_miss_rate::cpu.inst        0.006173                       # miss rate for overall accesses
system.l2.overall_miss_rate::cpu.data        0.997583                       # miss rate for overall accesses
system.l2.overall_miss_rate::total           0.966728                       # miss rate for overall accesses
system.l2.ReadExReq_avg_miss_latency::cpu.data 83286.958415                       # average ReadExReq miss latency
system.l2.ReadExReq_avg_miss_latency::total 83286.958415                       # average ReadExReq miss latency
system.l2.ReadCleanReq_avg_miss_latency::cpu.inst 116237.247208                       # average ReadCleanReq miss latency
system.l2.ReadCleanReq_avg_miss_latency::total 116237.247208                       # average ReadCleanReq miss latency
system.l2.ReadSharedReq_avg_miss_latency::cpu.data 312005.018562                       # average ReadSharedReq miss latency
system.l2.ReadSharedReq_avg_miss_latency::total 312005.018562                       # average ReadSharedReq miss latency
system.l2.demand_avg_miss_latency::cpu.inst 116237.247208                       # average overall miss latency
system.l2.demand_avg_miss_latency::cpu.data 84384.760359                       # average overall miss latency
system.l2.demand_avg_miss_latency::total 84391.090242                       # average overall miss latency
system.l2.overall_avg_miss_latency::cpu.inst 116237.247208                       # average overall miss latency
system.l2.overall_avg_miss_latency::cpu.data 84384.760359                       # average overall miss latency
system.l2.overall_avg_miss_latency::total 84391.090242                       # average overall miss latency
system.l2.blocked_cycles::no_mshrs                  0                       # number of cycles access was blocked
system.l2.blocked_cycles::no_targets                0                       # number of cycles access was blocked
system.l2.blocked::no_mshrs                         0                       # number of cycles access was blocked
system.l2.blocked::no_targets                       0                       # number of cycles access was blocked
system.l2.avg_blocked_cycles::no_mshrs            nan                       # average number of cycles each access was blocked
system.l2.avg_blocked_cycles::no_targets          nan                       # average number of cycles each access was blocked
system.l2.writebacks::writebacks             16624791                       # number of writebacks
system.l2.writebacks::total                  16624791                       # number of writebacks
system.l2.CleanEvict_mshr_misses::writebacks         1456                       # number of CleanEvict MSHR misses
system.l2.CleanEvict_mshr_misses::total          1456                       # number of CleanEvict MSHR misses
system.l2.ReadExReq_mshr_misses::cpu.data     16587968                       # number of ReadExReq MSHR misses
system.l2.ReadExReq_mshr_misses::total       16587968                       # number of ReadExReq MSHR misses
system.l2.ReadCleanReq_mshr_misses::cpu.inst         3313                       # number of ReadCleanReq MSHR misses
system.l2.ReadCleanReq_mshr_misses::total         3313                       # number of ReadCleanReq MSHR misses
system.l2.ReadSharedReq_mshr_misses::cpu.data        80003                       # number of ReadSharedReq MSHR misses
system.l2.ReadSharedReq_mshr_misses::total        80003                       # number of ReadSharedReq MSHR misses
system.l2.demand_mshr_misses::cpu.inst           3313                       # number of demand (read+write) MSHR misses
system.l2.demand_mshr_misses::cpu.data       16667971                       # number of demand (read+write) MSHR misses
system.l2.demand_mshr_misses::total          16671284                       # number of demand (read+write) MSHR misses
system.l2.overall_mshr_misses::cpu.inst          3313                       # number of overall MSHR misses
system.l2.overall_mshr_misses::cpu.data      16667971                       # number of overall MSHR misses
system.l2.overall_mshr_misses::total         16671284                       # number of overall MSHR misses
system.l2.ReadExReq_mshr_miss_latency::cpu.data 1215681721000                       # number of ReadExReq MSHR miss cycles
system.l2.ReadExReq_mshr_miss_latency::total 1215681721000                       # number of ReadExReq MSHR miss cycles
system.l2.ReadCleanReq_mshr_miss_latency::cpu.inst    351964000                       # number of ReadCleanReq MSHR miss cycles
system.l2.ReadCleanReq_mshr_miss_latency::total    351964000                       # number of ReadCleanReq MSHR miss cycles
system.l2.ReadSharedReq_mshr_miss_latency::cpu.data  24161307500                       # number of ReadSharedReq MSHR miss cycles
system.l2.ReadSharedReq_mshr_miss_latency::total  24161307500                       # number of ReadSharedReq MSHR miss cycles
system.l2.demand_mshr_miss_latency::cpu.inst    351964000                       # number of demand (read+write) MSHR miss cycles
system.l2.demand_mshr_miss_latency::cpu.data 1239843028500                       # number of demand (read+write) MSHR miss cycles
system.l2.demand_mshr_miss_latency::total 1240194992500                       # number of demand (read+write) MSHR miss cycles
system.l2.overall_mshr_miss_latency::cpu.inst    351964000                       # number of overall MSHR miss cycles
system.l2.overall_mshr_miss_latency::cpu.data 1239843028500                       # number of overall MSHR miss cycles
system.l2.overall_mshr_miss_latency::total 1240194992500                       # number of overall MSHR miss cycles
system.l2.CleanEvict_mshr_miss_rate::writebacks          inf                       # mshr miss rate for CleanEvict accesses
system.l2.CleanEvict_mshr_miss_rate::total          inf                       # mshr miss rate for CleanEvict accesses
system.l2.ReadExReq_mshr_miss_rate::cpu.data     0.999105                       # mshr miss rate for ReadExReq accesses
system.l2.ReadExReq_mshr_miss_rate::total     0.999105                       # mshr miss rate for ReadExReq accesses
system.l2.ReadCleanReq_mshr_miss_rate::cpu.inst     0.006173                       # mshr miss rate for ReadCleanReq accesses
system.l2.ReadCleanReq_mshr_miss_rate::total     0.006173                       # mshr miss rate for ReadCleanReq accesses
system.l2.ReadSharedReq_mshr_miss_rate::cpu.data     0.758114                       # mshr miss rate for ReadSharedReq accesses
system.l2.ReadSharedReq_mshr_miss_rate::total     0.758114                       # mshr miss rate for ReadSharedReq accesses
system.l2.demand_mshr_miss_rate::cpu.inst     0.006173                       # mshr miss rate for demand accesses
system.l2.demand_mshr_miss_rate::cpu.data     0.997583                       # mshr miss rate for demand accesses
system.l2.demand_mshr_miss_rate::total       0.966728                       # mshr miss rate for demand accesses
system.l2.overall_mshr_miss_rate::cpu.inst     0.006173                       # mshr miss rate for overall accesses
system.l2.overall_mshr_miss_rate::cpu.data     0.997583                       # mshr miss rate for overall accesses
system.l2.overall_mshr_miss_rate::total      0.966728                       # mshr miss rate for overall accesses
system.l2.ReadExReq_avg_mshr_miss_latency::cpu.data 73286.958415                       # average ReadExReq mshr miss latency
system.l2.ReadExReq_avg_mshr_miss_latency::total 73286.958415                       # average ReadExReq mshr miss latency
system.l2.ReadCleanReq_avg_mshr_miss_latency::cpu.inst 106237.247208                       # average ReadCleanReq mshr miss latency
system.l2.ReadCleanReq_avg_mshr_miss_latency::total 106237.247208                       # average ReadCleanReq mshr miss latency
system.l2.ReadSharedReq_avg_mshr_miss_latency::cpu.data 302005.018562                       # average ReadSharedReq mshr miss latency
system.l2.ReadSharedReq_avg_mshr_miss_latency::total 302005.018562                       # average ReadSharedReq mshr miss latency
system.l2.demand_avg_mshr_miss_latency::cpu.inst 106237.247208                       # average overall mshr miss latency
system.l2.demand_avg_mshr_miss_latency::cpu.data 74384.760359                       # average overall mshr miss latency
system.l2.demand_avg_mshr_miss_latency::total 74391.090242                       # average overall mshr miss latency
system.l2.overall_avg_mshr_miss_latency::cpu.inst 106237.247208                       # average overall mshr miss latency
system.l2.overall_avg_mshr_miss_latency::cpu.data 74384.760359                       # average overall mshr miss latency
system.l2.overall_avg_mshr_miss_latency::total 74391.090242                       # average overall mshr miss latency
system.membus.snoop_filter.tot_requests      33307998                       # Total number of requests made to the snoop filter.
system.membus.snoop_filter.hit_single_requests     16636714                       # Number of requests hitting in the snoop filter with a single holder of the requested data.
system.membus.snoop_filter.hit_multi_requests            0                       # Number of requests hitting in the snoop filter with multiple (>1) holders of the requested data.
system.membus.snoop_filter.tot_snoops               0                       # Total number of snoops made to the snoop filter.
system.membus.snoop_filter.hit_single_snoops            0                       # Number of snoops hitting in the snoop filter with a single holder of the requested data.
system.membus.snoop_filter.hit_multi_snoops            0                       # Number of snoops hitting in the snoop filter with multiple (>1) holders of the requested data.
system.membus.pwrStateResidencyTicks::UNDEFINED 2385827952500                       # Cumulative time (in ticks) in various power states
system.membus.trans_dist::ReadResp              83316                       # Transaction distribution
system.membus.trans_dist::WritebackDirty     16624791                       # Transaction distribution
system.membus.trans_dist::CleanEvict            11923                       # Transaction distribution
system.membus.trans_dist::ReadExReq          16587968                       # Transaction distribution
system.membus.trans_dist::ReadExResp         16587968                       # Transaction distribution
system.membus.trans_dist::ReadSharedReq         83316                       # Transaction distribution
system.membus.pkt_count_system.l2.mem_side::system.mem_ctrls.port     49979282                       # Packet count per connected master and slave (bytes)
system.membus.pkt_count_system.l2.mem_side::total     49979282                       # Packet count per connected master and slave (bytes)
system.membus.pkt_count::total               49979282                       # Packet count per connected master and slave (bytes)
system.membus.pkt_size_system.l2.mem_side::system.mem_ctrls.port   1065474400                       # Cumulative packet size per connected master and slave (bytes)
system.membus.pkt_size_system.l2.mem_side::total   1065474400                       # Cumulative packet size per connected master and slave (bytes)
system.membus.pkt_size::total              1065474400                       # Cumulative packet size per connected master and slave (bytes)
system.membus.snoops                                0                       # Total snoops (count)
system.membus.snoopTraffic                          0                       # Total snoop traffic (bytes)
system.membus.snoop_fanout::samples          16671284                       # Request fanout histogram
system.membus.snoop_fanout::mean                    0                       # Request fanout histogram
system.membus.snoop_fanout::stdev                   0                       # Request fanout histogram
system.membus.snoop_fanout::underflows              0      0.00%      0.00% # Request fanout histogram
system.membus.snoop_fanout::0                16671284    100.00%    100.00% # Request fanout histogram
system.membus.snoop_fanout::1                       0      0.00%    100.00% # Request fanout histogram
system.membus.snoop_fanout::overflows               0      0.00%    100.00% # Request fanout histogram
system.membus.snoop_fanout::min_value               0                       # Request fanout histogram
system.membus.snoop_fanout::max_value               0                       # Request fanout histogram
system.membus.snoop_fanout::total            16671284                       # Request fanout histogram
system.membus.reqLayer2.occupancy         66557596000                       # Layer occupancy (ticks)
system.membus.reqLayer2.utilization               2.8                       # Layer utilization (%)
system.membus.respLayer1.occupancy        54443672250                       # Layer occupancy (ticks)
system.membus.respLayer1.utilization              2.3                       # Layer utilization (%)
system.tol2bus.snoop_filter.tot_requests     34484153                       # Total number of requests made to the snoop filter.
system.tol2bus.snoop_filter.hit_single_requests     17239085                       # Number of requests hitting in the snoop filter with a single holder of the requested data.
system.tol2bus.snoop_filter.hit_multi_requests            0                       # Number of requests hitting in the snoop filter with multiple (>1) holders of the requested data.
system.tol2bus.snoop_filter.tot_snoops          10316                       # Total number of snoops made to the snoop filter.
system.tol2bus.snoop_filter.hit_single_snoops        10316                       # Number of snoops hitting in the snoop filter with a single holder of the requested data.
system.tol2bus.snoop_filter.hit_multi_snoops            0                       # Number of snoops hitting in the snoop filter with multiple (>1) holders of the requested data.
system.tol2bus.pwrStateResidencyTicks::UNDEFINED 2385827952500                       # Cumulative time (in ticks) in various power states
system.tol2bus.trans_dist::ReadResp            642240                       # Transaction distribution
system.tol2bus.trans_dist::WritebackDirty     33302556                       # Transaction distribution
system.tol2bus.trans_dist::WritebackClean       534824                       # Transaction distribution
system.tol2bus.trans_dist::CleanEvict           47279                       # Transaction distribution
system.tol2bus.trans_dist::ReadExReq         16602828                       # Transaction distribution
system.tol2bus.trans_dist::ReadExResp        16602828                       # Transaction distribution
system.tol2bus.trans_dist::ReadCleanReq        536711                       # Transaction distribution
system.tol2bus.trans_dist::ReadSharedReq       105529                       # Transaction distribution
system.tol2bus.pkt_count_system.cpu.icache.mem_side::system.l2.cpu_side      1608246                       # Packet count per connected master and slave (bytes)
system.tol2bus.pkt_count_system.cpu.dcache.mem_side::system.l2.cpu_side     50120975                       # Packet count per connected master and slave (bytes)
system.tol2bus.pkt_count::total              51729221                       # Packet count per connected master and slave (bytes)
system.tol2bus.pkt_size_system.cpu.icache.mem_side::system.l2.cpu_side     34289120                       # Cumulative packet size per connected master and slave (bytes)
system.tol2bus.pkt_size_system.cpu.dcache.mem_side::system.l2.cpu_side   1068355904                       # Cumulative packet size per connected master and slave (bytes)
system.tol2bus.pkt_size::total             1102645024                       # Cumulative packet size per connected master and slave (bytes)
system.tol2bus.snoops                        16645574                       # Total snoops (count)
system.tol2bus.snoopTraffic                 531993312                       # Total snoop traffic (bytes)
system.tol2bus.snoop_fanout::samples         33890642                       # Request fanout histogram
system.tol2bus.snoop_fanout::mean            0.000304                       # Request fanout histogram
system.tol2bus.snoop_fanout::stdev           0.017444                       # Request fanout histogram
system.tol2bus.snoop_fanout::underflows             0      0.00%      0.00% # Request fanout histogram
system.tol2bus.snoop_fanout::0               33880326     99.97%     99.97% # Request fanout histogram
system.tol2bus.snoop_fanout::1                  10316      0.03%    100.00% # Request fanout histogram
system.tol2bus.snoop_fanout::2                      0      0.00%    100.00% # Request fanout histogram
system.tol2bus.snoop_fanout::3                      0      0.00%    100.00% # Request fanout histogram
system.tol2bus.snoop_fanout::4                      0      0.00%    100.00% # Request fanout histogram
system.tol2bus.snoop_fanout::overflows              0      0.00%    100.00% # Request fanout histogram
system.tol2bus.snoop_fanout::min_value              0                       # Request fanout histogram
system.tol2bus.snoop_fanout::max_value              1                       # Request fanout histogram
system.tol2bus.snoop_fanout::total           33890642                       # Request fanout histogram
system.tol2bus.reqLayer0.occupancy        25848371000                       # Layer occupancy (ticks)
system.tol2bus.reqLayer0.utilization              1.1                       # Layer utilization (%)
system.tol2bus.respLayer0.occupancy         536711000                       # Layer occupancy (ticks)
system.tol2bus.respLayer0.utilization             0.0                       # Layer utilization (%)
system.tol2bus.respLayer1.occupancy       16708357000                       # Layer occupancy (ticks)
system.tol2bus.respLayer1.utilization             0.7                       # Layer utilization (%)

---------- End Simulation Statistics   ----------
