
---------- Begin Simulation Statistics ----------
sim_seconds                                  0.955829                       # Number of seconds simulated
sim_ticks                                955828509500                       # Number of ticks simulated
final_tick                               955828509500                       # Number of ticks from beginning of simulation (restored from checkpoints and never reset)
sim_freq                                 1000000000000                       # Frequency of simulated ticks
host_inst_rate                                 602228                       # Simulator instruction rate (inst/s)
host_op_rate                                   776610                       # Simulator op (including micro ops) rate (op/s)
host_tick_rate                             1151252555                       # Simulator tick rate (ticks/s)
host_mem_usage                                 665656                       # Number of bytes of host memory used
host_seconds                                   830.25                       # Real time elapsed on the host
sim_insts                                   500000000                       # Number of instructions simulated
sim_ops                                     644780824                       # Number of ops (including micro ops) simulated
system.voltage_domain.voltage                       1                       # Voltage in Volts
system.clk_domain.clock                          1000                       # Clock period in ticks
system.mem_ctrls.pwrStateResidencyTicks::UNDEFINED 955828509500                       # Cumulative time (in ticks) in various power states
system.mem_ctrls.bytes_read::cpu.inst          108096                       # Number of bytes read from this memory
system.mem_ctrls.bytes_read::cpu.data          321024                       # Number of bytes read from this memory
system.mem_ctrls.bytes_read::total             429120                       # Number of bytes read from this memory
system.mem_ctrls.bytes_inst_read::cpu.inst       108096                       # Number of instructions bytes read from this memory
system.mem_ctrls.bytes_inst_read::total        108096                       # Number of instructions bytes read from this memory
system.mem_ctrls.bytes_written::writebacks           64                       # Number of bytes written to this memory
system.mem_ctrls.bytes_written::total              64                       # Number of bytes written to this memory
system.mem_ctrls.num_reads::cpu.inst             1689                       # Number of read requests responded to by this memory
system.mem_ctrls.num_reads::cpu.data             5016                       # Number of read requests responded to by this memory
system.mem_ctrls.num_reads::total                6705                       # Number of read requests responded to by this memory
system.mem_ctrls.num_writes::writebacks             1                       # Number of write requests responded to by this memory
system.mem_ctrls.num_writes::total                  1                       # Number of write requests responded to by this memory
system.mem_ctrls.bw_read::cpu.inst             113091                       # Total read bandwidth from this memory (bytes/s)
system.mem_ctrls.bw_read::cpu.data             335859                       # Total read bandwidth from this memory (bytes/s)
system.mem_ctrls.bw_read::total                448951                       # Total read bandwidth from this memory (bytes/s)
system.mem_ctrls.bw_inst_read::cpu.inst        113091                       # Instruction read bandwidth from this memory (bytes/s)
system.mem_ctrls.bw_inst_read::total           113091                       # Instruction read bandwidth from this memory (bytes/s)
system.mem_ctrls.bw_write::writebacks              67                       # Write bandwidth from this memory (bytes/s)
system.mem_ctrls.bw_write::total                   67                       # Write bandwidth from this memory (bytes/s)
system.mem_ctrls.bw_total::writebacks              67                       # Total bandwidth to/from this memory (bytes/s)
system.mem_ctrls.bw_total::cpu.inst            113091                       # Total bandwidth to/from this memory (bytes/s)
system.mem_ctrls.bw_total::cpu.data            335859                       # Total bandwidth to/from this memory (bytes/s)
system.mem_ctrls.bw_total::total               449018                       # Total bandwidth to/from this memory (bytes/s)
system.mem_ctrls.readReqs                        6705                       # Number of read requests accepted
system.mem_ctrls.writeReqs                          1                       # Number of write requests accepted
system.mem_ctrls.readBursts                      6705                       # Number of DRAM read bursts, including those serviced by the write queue
system.mem_ctrls.writeBursts                        1                       # Number of DRAM write bursts, including those merged in the write queue
system.mem_ctrls.bytesReadDRAM                 429120                       # Total number of bytes read from DRAM
system.mem_ctrls.bytesReadWrQ                       0                       # Total number of bytes read from write queue
system.mem_ctrls.bytesWritten                       0                       # Total number of bytes written to DRAM
system.mem_ctrls.bytesReadSys                  429120                       # Total read bytes from the system interface side
system.mem_ctrls.bytesWrittenSys                   64                       # Total written bytes from the system interface side
system.mem_ctrls.servicedByWrQ                      0                       # Number of DRAM read bursts serviced by the write queue
system.mem_ctrls.mergedWrBursts                     0                       # Number of DRAM write bursts merged with an existing one
system.mem_ctrls.neitherReadNorWriteReqs            0                       # Number of requests that are neither read nor write
system.mem_ctrls.perBankRdBursts::0               315                       # Per bank write bursts
system.mem_ctrls.perBankRdBursts::1               346                       # Per bank write bursts
system.mem_ctrls.perBankRdBursts::2               421                       # Per bank write bursts
system.mem_ctrls.perBankRdBursts::3               318                       # Per bank write bursts
system.mem_ctrls.perBankRdBursts::4              1098                       # Per bank write bursts
system.mem_ctrls.perBankRdBursts::5               405                       # Per bank write bursts
system.mem_ctrls.perBankRdBursts::6               341                       # Per bank write bursts
system.mem_ctrls.perBankRdBursts::7               415                       # Per bank write bursts
system.mem_ctrls.perBankRdBursts::8               410                       # Per bank write bursts
system.mem_ctrls.perBankRdBursts::9               392                       # Per bank write bursts
system.mem_ctrls.perBankRdBursts::10              445                       # Per bank write bursts
system.mem_ctrls.perBankRdBursts::11              474                       # Per bank write bursts
system.mem_ctrls.perBankRdBursts::12              371                       # Per bank write bursts
system.mem_ctrls.perBankRdBursts::13              320                       # Per bank write bursts
system.mem_ctrls.perBankRdBursts::14              309                       # Per bank write bursts
system.mem_ctrls.perBankRdBursts::15              325                       # Per bank write bursts
system.mem_ctrls.perBankWrBursts::0                 0                       # Per bank write bursts
system.mem_ctrls.perBankWrBursts::1                 0                       # Per bank write bursts
system.mem_ctrls.perBankWrBursts::2                 0                       # Per bank write bursts
system.mem_ctrls.perBankWrBursts::3                 0                       # Per bank write bursts
system.mem_ctrls.perBankWrBursts::4                 0                       # Per bank write bursts
system.mem_ctrls.perBankWrBursts::5                 0                       # Per bank write bursts
system.mem_ctrls.perBankWrBursts::6                 0                       # Per bank write bursts
system.mem_ctrls.perBankWrBursts::7                 0                       # Per bank write bursts
system.mem_ctrls.perBankWrBursts::8                 0                       # Per bank write bursts
system.mem_ctrls.perBankWrBursts::9                 0                       # Per bank write bursts
system.mem_ctrls.perBankWrBursts::10                0                       # Per bank write bursts
system.mem_ctrls.perBankWrBursts::11                0                       # Per bank write bursts
system.mem_ctrls.perBankWrBursts::12                0                       # Per bank write bursts
system.mem_ctrls.perBankWrBursts::13                0                       # Per bank write bursts
system.mem_ctrls.perBankWrBursts::14                0                       # Per bank write bursts
system.mem_ctrls.perBankWrBursts::15                0                       # Per bank write bursts
system.mem_ctrls.numRdRetry                         0                       # Number of times read queue was full causing retry
system.mem_ctrls.numWrRetry                         0                       # Number of times write queue was full causing retry
system.mem_ctrls.totGap                  953430396500                       # Total gap between requests
system.mem_ctrls.readPktSize::0                     0                       # Read request sizes (log2)
system.mem_ctrls.readPktSize::1                     0                       # Read request sizes (log2)
system.mem_ctrls.readPktSize::2                     0                       # Read request sizes (log2)
system.mem_ctrls.readPktSize::3                     0                       # Read request sizes (log2)
system.mem_ctrls.readPktSize::4                     0                       # Read request sizes (log2)
system.mem_ctrls.readPktSize::5                     0                       # Read request sizes (log2)
system.mem_ctrls.readPktSize::6                  6705                       # Read request sizes (log2)
system.mem_ctrls.writePktSize::0                    0                       # Write request sizes (log2)
system.mem_ctrls.writePktSize::1                    0                       # Write request sizes (log2)
system.mem_ctrls.writePktSize::2                    0                       # Write request sizes (log2)
system.mem_ctrls.writePktSize::3                    0                       # Write request sizes (log2)
system.mem_ctrls.writePktSize::4                    0                       # Write request sizes (log2)
system.mem_ctrls.writePktSize::5                    0                       # Write request sizes (log2)
system.mem_ctrls.writePktSize::6                    1                       # Write request sizes (log2)
system.mem_ctrls.rdQLenPdf::0                    6445                       # What read queue length does an incoming req see
system.mem_ctrls.rdQLenPdf::1                     240                       # What read queue length does an incoming req see
system.mem_ctrls.rdQLenPdf::2                      16                       # What read queue length does an incoming req see
system.mem_ctrls.rdQLenPdf::3                       4                       # What read queue length does an incoming req see
system.mem_ctrls.rdQLenPdf::4                       0                       # What read queue length does an incoming req see
system.mem_ctrls.rdQLenPdf::5                       0                       # What read queue length does an incoming req see
system.mem_ctrls.rdQLenPdf::6                       0                       # What read queue length does an incoming req see
system.mem_ctrls.rdQLenPdf::7                       0                       # What read queue length does an incoming req see
system.mem_ctrls.rdQLenPdf::8                       0                       # What read queue length does an incoming req see
system.mem_ctrls.rdQLenPdf::9                       0                       # What read queue length does an incoming req see
system.mem_ctrls.rdQLenPdf::10                      0                       # What read queue length does an incoming req see
system.mem_ctrls.rdQLenPdf::11                      0                       # What read queue length does an incoming req see
system.mem_ctrls.rdQLenPdf::12                      0                       # What read queue length does an incoming req see
system.mem_ctrls.rdQLenPdf::13                      0                       # What read queue length does an incoming req see
system.mem_ctrls.rdQLenPdf::14                      0                       # What read queue length does an incoming req see
system.mem_ctrls.rdQLenPdf::15                      0                       # What read queue length does an incoming req see
system.mem_ctrls.rdQLenPdf::16                      0                       # What read queue length does an incoming req see
system.mem_ctrls.rdQLenPdf::17                      0                       # What read queue length does an incoming req see
system.mem_ctrls.rdQLenPdf::18                      0                       # What read queue length does an incoming req see
system.mem_ctrls.rdQLenPdf::19                      0                       # What read queue length does an incoming req see
system.mem_ctrls.rdQLenPdf::20                      0                       # What read queue length does an incoming req see
system.mem_ctrls.rdQLenPdf::21                      0                       # What read queue length does an incoming req see
system.mem_ctrls.rdQLenPdf::22                      0                       # What read queue length does an incoming req see
system.mem_ctrls.rdQLenPdf::23                      0                       # What read queue length does an incoming req see
system.mem_ctrls.rdQLenPdf::24                      0                       # What read queue length does an incoming req see
system.mem_ctrls.rdQLenPdf::25                      0                       # What read queue length does an incoming req see
system.mem_ctrls.rdQLenPdf::26                      0                       # What read queue length does an incoming req see
system.mem_ctrls.rdQLenPdf::27                      0                       # What read queue length does an incoming req see
system.mem_ctrls.rdQLenPdf::28                      0                       # What read queue length does an incoming req see
system.mem_ctrls.rdQLenPdf::29                      0                       # What read queue length does an incoming req see
system.mem_ctrls.rdQLenPdf::30                      0                       # What read queue length does an incoming req see
system.mem_ctrls.rdQLenPdf::31                      0                       # What read queue length does an incoming req see
system.mem_ctrls.wrQLenPdf::0                       1                       # What write queue length does an incoming req see
system.mem_ctrls.wrQLenPdf::1                       0                       # What write queue length does an incoming req see
system.mem_ctrls.wrQLenPdf::2                       0                       # What write queue length does an incoming req see
system.mem_ctrls.wrQLenPdf::3                       0                       # What write queue length does an incoming req see
system.mem_ctrls.wrQLenPdf::4                       0                       # What write queue length does an incoming req see
system.mem_ctrls.wrQLenPdf::5                       0                       # What write queue length does an incoming req see
system.mem_ctrls.wrQLenPdf::6                       0                       # What write queue length does an incoming req see
system.mem_ctrls.wrQLenPdf::7                       0                       # What write queue length does an incoming req see
system.mem_ctrls.wrQLenPdf::8                       0                       # What write queue length does an incoming req see
system.mem_ctrls.wrQLenPdf::9                       0                       # What write queue length does an incoming req see
system.mem_ctrls.wrQLenPdf::10                      0                       # What write queue length does an incoming req see
system.mem_ctrls.wrQLenPdf::11                      0                       # What write queue length does an incoming req see
system.mem_ctrls.wrQLenPdf::12                      0                       # What write queue length does an incoming req see
system.mem_ctrls.wrQLenPdf::13                      0                       # What write queue length does an incoming req see
system.mem_ctrls.wrQLenPdf::14                      0                       # What write queue length does an incoming req see
system.mem_ctrls.wrQLenPdf::15                      0                       # What write queue length does an incoming req see
system.mem_ctrls.wrQLenPdf::16                      0                       # What write queue length does an incoming req see
system.mem_ctrls.wrQLenPdf::17                      0                       # What write queue length does an incoming req see
system.mem_ctrls.wrQLenPdf::18                      0                       # What write queue length does an incoming req see
system.mem_ctrls.wrQLenPdf::19                      0                       # What write queue length does an incoming req see
system.mem_ctrls.wrQLenPdf::20                      0                       # What write queue length does an incoming req see
system.mem_ctrls.wrQLenPdf::21                      0                       # What write queue length does an incoming req see
system.mem_ctrls.wrQLenPdf::22                      0                       # What write queue length does an incoming req see
system.mem_ctrls.wrQLenPdf::23                      0                       # What write queue length does an incoming req see
system.mem_ctrls.wrQLenPdf::24                      0                       # What write queue length does an incoming req see
system.mem_ctrls.wrQLenPdf::25                      0                       # What write queue length does an incoming req see
system.mem_ctrls.wrQLenPdf::26                      0                       # What write queue length does an incoming req see
system.mem_ctrls.wrQLenPdf::27                      0                       # What write queue length does an incoming req see
system.mem_ctrls.wrQLenPdf::28                      0                       # What write queue length does an incoming req see
system.mem_ctrls.wrQLenPdf::29                      0                       # What write queue length does an incoming req see
system.mem_ctrls.wrQLenPdf::30                      0                       # What write queue length does an incoming req see
system.mem_ctrls.wrQLenPdf::31                      0                       # What write queue length does an incoming req see
system.mem_ctrls.wrQLenPdf::32                      0                       # What write queue length does an incoming req see
system.mem_ctrls.wrQLenPdf::33                      0                       # What write queue length does an incoming req see
system.mem_ctrls.wrQLenPdf::34                      0                       # What write queue length does an incoming req see
system.mem_ctrls.wrQLenPdf::35                      0                       # What write queue length does an incoming req see
system.mem_ctrls.wrQLenPdf::36                      0                       # What write queue length does an incoming req see
system.mem_ctrls.wrQLenPdf::37                      0                       # What write queue length does an incoming req see
system.mem_ctrls.wrQLenPdf::38                      0                       # What write queue length does an incoming req see
system.mem_ctrls.wrQLenPdf::39                      0                       # What write queue length does an incoming req see
system.mem_ctrls.wrQLenPdf::40                      0                       # What write queue length does an incoming req see
system.mem_ctrls.wrQLenPdf::41                      0                       # What write queue length does an incoming req see
system.mem_ctrls.wrQLenPdf::42                      0                       # What write queue length does an incoming req see
system.mem_ctrls.wrQLenPdf::43                      0                       # What write queue length does an incoming req see
system.mem_ctrls.wrQLenPdf::44                      0                       # What write queue length does an incoming req see
system.mem_ctrls.wrQLenPdf::45                      0                       # What write queue length does an incoming req see
system.mem_ctrls.wrQLenPdf::46                      0                       # What write queue length does an incoming req see
system.mem_ctrls.wrQLenPdf::47                      0                       # What write queue length does an incoming req see
system.mem_ctrls.wrQLenPdf::48                      0                       # What write queue length does an incoming req see
system.mem_ctrls.wrQLenPdf::49                      0                       # What write queue length does an incoming req see
system.mem_ctrls.wrQLenPdf::50                      0                       # What write queue length does an incoming req see
system.mem_ctrls.wrQLenPdf::51                      0                       # What write queue length does an incoming req see
system.mem_ctrls.wrQLenPdf::52                      0                       # What write queue length does an incoming req see
system.mem_ctrls.wrQLenPdf::53                      0                       # What write queue length does an incoming req see
system.mem_ctrls.wrQLenPdf::54                      0                       # What write queue length does an incoming req see
system.mem_ctrls.wrQLenPdf::55                      0                       # What write queue length does an incoming req see
system.mem_ctrls.wrQLenPdf::56                      0                       # What write queue length does an incoming req see
system.mem_ctrls.wrQLenPdf::57                      0                       # What write queue length does an incoming req see
system.mem_ctrls.wrQLenPdf::58                      0                       # What write queue length does an incoming req see
system.mem_ctrls.wrQLenPdf::59                      0                       # What write queue length does an incoming req see
system.mem_ctrls.wrQLenPdf::60                      0                       # What write queue length does an incoming req see
system.mem_ctrls.wrQLenPdf::61                      0                       # What write queue length does an incoming req see
system.mem_ctrls.wrQLenPdf::62                      0                       # What write queue length does an incoming req see
system.mem_ctrls.wrQLenPdf::63                      0                       # What write queue length does an incoming req see
system.mem_ctrls.bytesPerActivate::samples         3089                       # Bytes accessed per row activation
system.mem_ctrls.bytesPerActivate::mean    138.918744                       # Bytes accessed per row activation
system.mem_ctrls.bytesPerActivate::gmean    88.313616                       # Bytes accessed per row activation
system.mem_ctrls.bytesPerActivate::stdev   214.164811                       # Bytes accessed per row activation
system.mem_ctrls.bytesPerActivate::0-127         2479     80.25%     80.25% # Bytes accessed per row activation
system.mem_ctrls.bytesPerActivate::128-255          253      8.19%     88.44% # Bytes accessed per row activation
system.mem_ctrls.bytesPerActivate::256-383           89      2.88%     91.32% # Bytes accessed per row activation
system.mem_ctrls.bytesPerActivate::384-511           69      2.23%     93.56% # Bytes accessed per row activation
system.mem_ctrls.bytesPerActivate::512-639           25      0.81%     94.37% # Bytes accessed per row activation
system.mem_ctrls.bytesPerActivate::640-767           22      0.71%     95.08% # Bytes accessed per row activation
system.mem_ctrls.bytesPerActivate::768-895           24      0.78%     95.86% # Bytes accessed per row activation
system.mem_ctrls.bytesPerActivate::896-1023            8      0.26%     96.12% # Bytes accessed per row activation
system.mem_ctrls.bytesPerActivate::1024-1151          120      3.88%    100.00% # Bytes accessed per row activation
system.mem_ctrls.bytesPerActivate::total         3089                       # Bytes accessed per row activation
system.mem_ctrls.totQLat                    491942500                       # Total ticks spent queuing
system.mem_ctrls.totMemAccLat               617661250                       # Total ticks spent from burst creation until serviced by the DRAM
system.mem_ctrls.totBusLat                   33525000                       # Total ticks spent in databus transfers
system.mem_ctrls.avgQLat                     73369.50                       # Average queueing delay per DRAM burst
system.mem_ctrls.avgBusLat                    5000.00                       # Average bus latency per DRAM burst
system.mem_ctrls.avgMemAccLat                92119.50                       # Average memory access latency per DRAM burst
system.mem_ctrls.avgRdBW                         0.45                       # Average DRAM read bandwidth in MiByte/s
system.mem_ctrls.avgWrBW                         0.00                       # Average achieved write bandwidth in MiByte/s
system.mem_ctrls.avgRdBWSys                      0.45                       # Average system read bandwidth in MiByte/s
system.mem_ctrls.avgWrBWSys                      0.00                       # Average system write bandwidth in MiByte/s
system.mem_ctrls.peakBW                      12800.00                       # Theoretical peak bandwidth in MiByte/s
system.mem_ctrls.busUtil                         0.00                       # Data bus utilization in percentage
system.mem_ctrls.busUtilRead                     0.00                       # Data bus utilization in percentage for reads
system.mem_ctrls.busUtilWrite                    0.00                       # Data bus utilization in percentage for writes
system.mem_ctrls.avgRdQLen                       1.01                       # Average read queue length when enqueuing
system.mem_ctrls.avgWrQLen                       1.00                       # Average write queue length when enqueuing
system.mem_ctrls.readRowHits                     3616                       # Number of row buffer hits during reads
system.mem_ctrls.writeRowHits                       0                       # Number of row buffer hits during writes
system.mem_ctrls.readRowHitRate                 53.93                       # Row buffer hit rate for reads
system.mem_ctrls.writeRowHitRate                 0.00                       # Row buffer hit rate for writes
system.mem_ctrls.avgGap                  142175722.71                       # Average gap between requests
system.mem_ctrls.pageHitRate                    53.92                       # Row buffer hit rate, read and write combined
system.mem_ctrls_0.actEnergy                 12673500                       # Energy for activate commands per rank (pJ)
system.mem_ctrls_0.preEnergy                  6736125                       # Energy for precharge commands per rank (pJ)
system.mem_ctrls_0.readEnergy                26125260                       # Energy for read commands per rank (pJ)
system.mem_ctrls_0.writeEnergy                      0                       # Energy for write commands per rank (pJ)
system.mem_ctrls_0.refreshEnergy         1557497760.000000                       # Energy for refresh commands per rank (pJ)
system.mem_ctrls_0.actBackEnergy            336550800                       # Energy for active background per rank (pJ)
system.mem_ctrls_0.preBackEnergy             91455840                       # Energy for precharge background per rank (pJ)
system.mem_ctrls_0.actPowerDownEnergy      3628043730                       # Energy for active power-down per rank (pJ)
system.mem_ctrls_0.prePowerDownEnergy      2303427840                       # Energy for precharge power-down per rank (pJ)
system.mem_ctrls_0.selfRefreshEnergy     226180994280                       # Energy for self refresh per rank (pJ)
system.mem_ctrls_0.totalEnergy           234143505135                       # Total energy per rank (pJ)
system.mem_ctrls_0.averagePower            244.963927                       # Core power per rank (mW)
system.mem_ctrls_0.totalIdleTime         952470310250                       # Total Idle time Per DRAM Rank
system.mem_ctrls_0.memoryStateTime::IDLE    182165500                       # Time in different power states
system.mem_ctrls_0.memoryStateTime::REF     662836000                       # Time in different power states
system.mem_ctrls_0.memoryStateTime::SREF 940897551500                       # Time in different power states
system.mem_ctrls_0.memoryStateTime::PRE_PDN   5998603000                       # Time in different power states
system.mem_ctrls_0.memoryStateTime::ACT     131204750                       # Time in different power states
system.mem_ctrls_0.memoryStateTime::ACT_PDN   7956148750                       # Time in different power states
system.mem_ctrls_1.actEnergy                  9381960                       # Energy for activate commands per rank (pJ)
system.mem_ctrls_1.preEnergy                  4986630                       # Energy for precharge commands per rank (pJ)
system.mem_ctrls_1.readEnergy                21748440                       # Energy for read commands per rank (pJ)
system.mem_ctrls_1.writeEnergy                      0                       # Energy for write commands per rank (pJ)
system.mem_ctrls_1.refreshEnergy         374930400.000000                       # Energy for refresh commands per rank (pJ)
system.mem_ctrls_1.actBackEnergy            111856230                       # Energy for active background per rank (pJ)
system.mem_ctrls_1.preBackEnergy             11110560                       # Energy for precharge background per rank (pJ)
system.mem_ctrls_1.actPowerDownEnergy      1521590490                       # Energy for active power-down per rank (pJ)
system.mem_ctrls_1.prePowerDownEnergy       348140640                       # Energy for precharge power-down per rank (pJ)
system.mem_ctrls_1.selfRefreshEnergy     228332302485                       # Energy for self refresh per rank (pJ)
system.mem_ctrls_1.totalEnergy           230736139755                       # Total energy per rank (pJ)
system.mem_ctrls_1.averagePower            241.399098                       # Core power per rank (mW)
system.mem_ctrls_1.totalIdleTime          16005261000                       # Total Idle time Per DRAM Rank
system.mem_ctrls_1.memoryStateTime::IDLE     12571000                       # Time in different power states
system.mem_ctrls_1.memoryStateTime::REF     158798000                       # Time in different power states
system.mem_ctrls_1.memoryStateTime::SREF 951310639000                       # Time in different power states
system.mem_ctrls_1.memoryStateTime::PRE_PDN    906508500                       # Time in different power states
system.mem_ctrls_1.memoryStateTime::ACT     103184500                       # Time in different power states
system.mem_ctrls_1.memoryStateTime::ACT_PDN   3336808500                       # Time in different power states
system.pwrStateResidencyTicks::UNDEFINED 955828509500                       # Cumulative time (in ticks) in various power states
system.cpu_voltage_domain.voltage                   1                       # Voltage in Volts
system.cpu_clk_domain.clock                       500                       # Clock period in ticks
system.cpu.dtb.walker.pwrStateResidencyTicks::UNDEFINED 955828509500                       # Cumulative time (in ticks) in various power states
system.cpu.apic_clk_domain.clock                 8000                       # Clock period in ticks
system.cpu.interrupts.pwrStateResidencyTicks::UNDEFINED 955828509500                       # Cumulative time (in ticks) in various power states
system.cpu.itb.walker.pwrStateResidencyTicks::UNDEFINED 955828509500                       # Cumulative time (in ticks) in various power states
system.cpu.workload.num_syscalls                   34                       # Number of system calls
system.cpu.pwrStateResidencyTicks::ON    955828509500                       # Cumulative time (in ticks) in various power states
system.cpu.numCycles                       1911657019                       # number of cpu cycles simulated
system.cpu.numWorkItemsStarted                      0                       # number of work items this cpu started
system.cpu.numWorkItemsCompleted                    0                       # number of work items this cpu completed
system.cpu.committedInsts                   500000000                       # Number of instructions committed
system.cpu.committedOps                     644780824                       # Number of ops (including micro ops) committed
system.cpu.num_int_alu_accesses             625781845                       # Number of integer alu accesses
system.cpu.num_fp_alu_accesses               27680885                       # Number of float alu accesses
system.cpu.num_func_calls                     1532449                       # number of times a function call or return occured
system.cpu.num_conditional_control_insts     25288260                       # number of instructions that are conditional controls
system.cpu.num_int_insts                    625781845                       # number of integer instructions
system.cpu.num_fp_insts                      27680885                       # number of float instructions
system.cpu.num_int_register_reads          1467255983                       # number of times the integer registers were read
system.cpu.num_int_register_writes          569426959                       # number of times the integer registers were written
system.cpu.num_fp_register_reads             21886167                       # number of times the floating registers were read
system.cpu.num_fp_register_writes            23676651                       # number of times the floating registers were written
system.cpu.num_cc_register_reads            187287140                       # number of times the CC registers were read
system.cpu.num_cc_register_writes           260710310                       # number of times the CC registers were written
system.cpu.num_mem_refs                     254811579                       # number of memory refs
system.cpu.num_load_insts                   219158147                       # Number of load instructions
system.cpu.num_store_insts                   35653432                       # Number of store instructions
system.cpu.num_idle_cycles                          0                       # Number of idle cycles
system.cpu.num_busy_cycles                 1911657019                       # Number of busy cycles
system.cpu.not_idle_fraction                        1                       # Percentage of non-idle cycles
system.cpu.idle_fraction                            0                       # Percentage of idle cycles
system.cpu.Branches                          27593151                       # Number of branches fetched
system.cpu.op_class::No_OpClass               1477149      0.23%      0.23% # Class of executed instruction
system.cpu.op_class::IntAlu                 363712896     56.41%     56.64% # Class of executed instruction
system.cpu.op_class::IntMult                   612864      0.10%     56.73% # Class of executed instruction
system.cpu.op_class::IntDiv                   6327906      0.98%     57.71% # Class of executed instruction
system.cpu.op_class::FloatAdd                17838430      2.77%     60.48% # Class of executed instruction
system.cpu.op_class::FloatCmp                       0      0.00%     60.48% # Class of executed instruction
system.cpu.op_class::FloatCvt                       0      0.00%     60.48% # Class of executed instruction
system.cpu.op_class::FloatMult                      0      0.00%     60.48% # Class of executed instruction
system.cpu.op_class::FloatDiv                       0      0.00%     60.48% # Class of executed instruction
system.cpu.op_class::FloatSqrt                      0      0.00%     60.48% # Class of executed instruction
system.cpu.op_class::SimdAdd                        0      0.00%     60.48% # Class of executed instruction
system.cpu.op_class::SimdAddAcc                     0      0.00%     60.48% # Class of executed instruction
system.cpu.op_class::SimdAlu                        0      0.00%     60.48% # Class of executed instruction
system.cpu.op_class::SimdCmp                        0      0.00%     60.48% # Class of executed instruction
system.cpu.op_class::SimdCvt                        0      0.00%     60.48% # Class of executed instruction
system.cpu.op_class::SimdMisc                       0      0.00%     60.48% # Class of executed instruction
system.cpu.op_class::SimdMult                       0      0.00%     60.48% # Class of executed instruction
system.cpu.op_class::SimdMultAcc                    0      0.00%     60.48% # Class of executed instruction
system.cpu.op_class::SimdShift                      0      0.00%     60.48% # Class of executed instruction
system.cpu.op_class::SimdShiftAcc                   0      0.00%     60.48% # Class of executed instruction
system.cpu.op_class::SimdSqrt                       0      0.00%     60.48% # Class of executed instruction
system.cpu.op_class::SimdFloatAdd                   0      0.00%     60.48% # Class of executed instruction
system.cpu.op_class::SimdFloatAlu                   0      0.00%     60.48% # Class of executed instruction
system.cpu.op_class::SimdFloatCmp                   0      0.00%     60.48% # Class of executed instruction
system.cpu.op_class::SimdFloatCvt                   0      0.00%     60.48% # Class of executed instruction
system.cpu.op_class::SimdFloatDiv                   0      0.00%     60.48% # Class of executed instruction
system.cpu.op_class::SimdFloatMisc                  0      0.00%     60.48% # Class of executed instruction
system.cpu.op_class::SimdFloatMult                  0      0.00%     60.48% # Class of executed instruction
system.cpu.op_class::SimdFloatMultAcc               0      0.00%     60.48% # Class of executed instruction
system.cpu.op_class::SimdFloatSqrt                  0      0.00%     60.48% # Class of executed instruction
system.cpu.op_class::MemRead                219158147     33.99%     94.47% # Class of executed instruction
system.cpu.op_class::MemWrite                35653432      5.53%    100.00% # Class of executed instruction
system.cpu.op_class::IprAccess                      0      0.00%    100.00% # Class of executed instruction
system.cpu.op_class::InstPrefetch                   0      0.00%    100.00% # Class of executed instruction
system.cpu.op_class::total                  644780824                       # Class of executed instruction
system.cpu.dcache.tags.pwrStateResidencyTicks::UNDEFINED 955828509500                       # Cumulative time (in ticks) in various power states
system.cpu.dcache.tags.replacements            343383                       # number of replacements
system.cpu.dcache.tags.tagsinuse          1023.224064                       # Cycle average of tags in use
system.cpu.dcache.tags.total_refs           254467722                       # Total number of references to valid blocks.
system.cpu.dcache.tags.sampled_refs            344407                       # Sample count of references to valid blocks.
system.cpu.dcache.tags.avg_refs            738.857578                       # Average number of references to valid blocks.
system.cpu.dcache.tags.warmup_cycle        3789507500                       # Cycle when the warmup percentage was hit.
system.cpu.dcache.tags.occ_blocks::cpu.data  1023.224064                       # Average occupied blocks per requestor
system.cpu.dcache.tags.occ_percent::cpu.data     0.999242                       # Average percentage of cache occupancy
system.cpu.dcache.tags.occ_percent::total     0.999242                       # Average percentage of cache occupancy
system.cpu.dcache.tags.occ_task_id_blocks::1024         1024                       # Occupied blocks per task id
system.cpu.dcache.tags.age_task_id_blocks_1024::0            3                       # Occupied blocks per task id
system.cpu.dcache.tags.age_task_id_blocks_1024::1           36                       # Occupied blocks per task id
system.cpu.dcache.tags.age_task_id_blocks_1024::2          431                       # Occupied blocks per task id
system.cpu.dcache.tags.age_task_id_blocks_1024::3          363                       # Occupied blocks per task id
system.cpu.dcache.tags.age_task_id_blocks_1024::4          191                       # Occupied blocks per task id
system.cpu.dcache.tags.occ_task_id_percent::1024            1                       # Percentage of cache occupancy per task id
system.cpu.dcache.tags.tag_accesses         509968665                       # Number of tag accesses
system.cpu.dcache.tags.data_accesses        509968665                       # Number of data accesses
system.cpu.dcache.pwrStateResidencyTicks::UNDEFINED 955828509500                       # Cumulative time (in ticks) in various power states
system.cpu.dcache.ReadReq_hits::cpu.data    219078361                       # number of ReadReq hits
system.cpu.dcache.ReadReq_hits::total       219078361                       # number of ReadReq hits
system.cpu.dcache.WriteReq_hits::cpu.data     35389356                       # number of WriteReq hits
system.cpu.dcache.WriteReq_hits::total       35389356                       # number of WriteReq hits
system.cpu.dcache.SoftPFReq_hits::cpu.data            5                       # number of SoftPFReq hits
system.cpu.dcache.SoftPFReq_hits::total             5                       # number of SoftPFReq hits
system.cpu.dcache.demand_hits::cpu.data     254467717                       # number of demand (read+write) hits
system.cpu.dcache.demand_hits::total        254467717                       # number of demand (read+write) hits
system.cpu.dcache.overall_hits::cpu.data    254467722                       # number of overall hits
system.cpu.dcache.overall_hits::total       254467722                       # number of overall hits
system.cpu.dcache.ReadReq_misses::cpu.data        78066                       # number of ReadReq misses
system.cpu.dcache.ReadReq_misses::total         78066                       # number of ReadReq misses
system.cpu.dcache.WriteReq_misses::cpu.data       264122                       # number of WriteReq misses
system.cpu.dcache.WriteReq_misses::total       264122                       # number of WriteReq misses
system.cpu.dcache.SoftPFReq_misses::cpu.data         2219                       # number of SoftPFReq misses
system.cpu.dcache.SoftPFReq_misses::total         2219                       # number of SoftPFReq misses
system.cpu.dcache.demand_misses::cpu.data       342188                       # number of demand (read+write) misses
system.cpu.dcache.demand_misses::total         342188                       # number of demand (read+write) misses
system.cpu.dcache.overall_misses::cpu.data       344407                       # number of overall misses
system.cpu.dcache.overall_misses::total        344407                       # number of overall misses
system.cpu.dcache.ReadReq_miss_latency::cpu.data   1267704500                       # number of ReadReq miss cycles
system.cpu.dcache.ReadReq_miss_latency::total   1267704500                       # number of ReadReq miss cycles
system.cpu.dcache.WriteReq_miss_latency::cpu.data   3734852500                       # number of WriteReq miss cycles
system.cpu.dcache.WriteReq_miss_latency::total   3734852500                       # number of WriteReq miss cycles
system.cpu.dcache.demand_miss_latency::cpu.data   5002557000                       # number of demand (read+write) miss cycles
system.cpu.dcache.demand_miss_latency::total   5002557000                       # number of demand (read+write) miss cycles
system.cpu.dcache.overall_miss_latency::cpu.data   5002557000                       # number of overall miss cycles
system.cpu.dcache.overall_miss_latency::total   5002557000                       # number of overall miss cycles
system.cpu.dcache.ReadReq_accesses::cpu.data    219156427                       # number of ReadReq accesses(hits+misses)
system.cpu.dcache.ReadReq_accesses::total    219156427                       # number of ReadReq accesses(hits+misses)
system.cpu.dcache.WriteReq_accesses::cpu.data     35653478                       # number of WriteReq accesses(hits+misses)
system.cpu.dcache.WriteReq_accesses::total     35653478                       # number of WriteReq accesses(hits+misses)
system.cpu.dcache.SoftPFReq_accesses::cpu.data         2224                       # number of SoftPFReq accesses(hits+misses)
system.cpu.dcache.SoftPFReq_accesses::total         2224                       # number of SoftPFReq accesses(hits+misses)
system.cpu.dcache.demand_accesses::cpu.data    254809905                       # number of demand (read+write) accesses
system.cpu.dcache.demand_accesses::total    254809905                       # number of demand (read+write) accesses
system.cpu.dcache.overall_accesses::cpu.data    254812129                       # number of overall (read+write) accesses
system.cpu.dcache.overall_accesses::total    254812129                       # number of overall (read+write) accesses
system.cpu.dcache.ReadReq_miss_rate::cpu.data     0.000356                       # miss rate for ReadReq accesses
system.cpu.dcache.ReadReq_miss_rate::total     0.000356                       # miss rate for ReadReq accesses
system.cpu.dcache.WriteReq_miss_rate::cpu.data     0.007408                       # miss rate for WriteReq accesses
system.cpu.dcache.WriteReq_miss_rate::total     0.007408                       # miss rate for WriteReq accesses
system.cpu.dcache.SoftPFReq_miss_rate::cpu.data     0.997752                       # miss rate for SoftPFReq accesses
system.cpu.dcache.SoftPFReq_miss_rate::total     0.997752                       # miss rate for SoftPFReq accesses
system.cpu.dcache.demand_miss_rate::cpu.data     0.001343                       # miss rate for demand accesses
system.cpu.dcache.demand_miss_rate::total     0.001343                       # miss rate for demand accesses
system.cpu.dcache.overall_miss_rate::cpu.data     0.001352                       # miss rate for overall accesses
system.cpu.dcache.overall_miss_rate::total     0.001352                       # miss rate for overall accesses
system.cpu.dcache.ReadReq_avg_miss_latency::cpu.data 16238.881203                       # average ReadReq miss latency
system.cpu.dcache.ReadReq_avg_miss_latency::total 16238.881203                       # average ReadReq miss latency
system.cpu.dcache.WriteReq_avg_miss_latency::cpu.data 14140.633874                       # average WriteReq miss latency
system.cpu.dcache.WriteReq_avg_miss_latency::total 14140.633874                       # average WriteReq miss latency
system.cpu.dcache.demand_avg_miss_latency::cpu.data 14619.323296                       # average overall miss latency
system.cpu.dcache.demand_avg_miss_latency::total 14619.323296                       # average overall miss latency
system.cpu.dcache.overall_avg_miss_latency::cpu.data 14525.131603                       # average overall miss latency
system.cpu.dcache.overall_avg_miss_latency::total 14525.131603                       # average overall miss latency
system.cpu.dcache.blocked_cycles::no_mshrs         6921                       # number of cycles access was blocked
system.cpu.dcache.blocked_cycles::no_targets            0                       # number of cycles access was blocked
system.cpu.dcache.blocked::no_mshrs               224                       # number of cycles access was blocked
system.cpu.dcache.blocked::no_targets               0                       # number of cycles access was blocked
system.cpu.dcache.avg_blocked_cycles::no_mshrs    30.897321                       # average number of cycles each access was blocked
system.cpu.dcache.avg_blocked_cycles::no_targets          nan                       # average number of cycles each access was blocked
system.cpu.dcache.writebacks::writebacks       338185                       # number of writebacks
system.cpu.dcache.writebacks::total            338185                       # number of writebacks
system.cpu.dcache.ReadReq_mshr_misses::cpu.data        78066                       # number of ReadReq MSHR misses
system.cpu.dcache.ReadReq_mshr_misses::total        78066                       # number of ReadReq MSHR misses
system.cpu.dcache.WriteReq_mshr_misses::cpu.data       264122                       # number of WriteReq MSHR misses
system.cpu.dcache.WriteReq_mshr_misses::total       264122                       # number of WriteReq MSHR misses
system.cpu.dcache.SoftPFReq_mshr_misses::cpu.data         2219                       # number of SoftPFReq MSHR misses
system.cpu.dcache.SoftPFReq_mshr_misses::total         2219                       # number of SoftPFReq MSHR misses
system.cpu.dcache.demand_mshr_misses::cpu.data       342188                       # number of demand (read+write) MSHR misses
system.cpu.dcache.demand_mshr_misses::total       342188                       # number of demand (read+write) MSHR misses
system.cpu.dcache.overall_mshr_misses::cpu.data       344407                       # number of overall MSHR misses
system.cpu.dcache.overall_mshr_misses::total       344407                       # number of overall MSHR misses
system.cpu.dcache.ReadReq_mshr_miss_latency::cpu.data   1189638500                       # number of ReadReq MSHR miss cycles
system.cpu.dcache.ReadReq_mshr_miss_latency::total   1189638500                       # number of ReadReq MSHR miss cycles
system.cpu.dcache.WriteReq_mshr_miss_latency::cpu.data   3470730500                       # number of WriteReq MSHR miss cycles
system.cpu.dcache.WriteReq_mshr_miss_latency::total   3470730500                       # number of WriteReq MSHR miss cycles
system.cpu.dcache.SoftPFReq_mshr_miss_latency::cpu.data     64362498                       # number of SoftPFReq MSHR miss cycles
system.cpu.dcache.SoftPFReq_mshr_miss_latency::total     64362498                       # number of SoftPFReq MSHR miss cycles
system.cpu.dcache.demand_mshr_miss_latency::cpu.data   4660369000                       # number of demand (read+write) MSHR miss cycles
system.cpu.dcache.demand_mshr_miss_latency::total   4660369000                       # number of demand (read+write) MSHR miss cycles
system.cpu.dcache.overall_mshr_miss_latency::cpu.data   4724731498                       # number of overall MSHR miss cycles
system.cpu.dcache.overall_mshr_miss_latency::total   4724731498                       # number of overall MSHR miss cycles
system.cpu.dcache.ReadReq_mshr_miss_rate::cpu.data     0.000356                       # mshr miss rate for ReadReq accesses
system.cpu.dcache.ReadReq_mshr_miss_rate::total     0.000356                       # mshr miss rate for ReadReq accesses
system.cpu.dcache.WriteReq_mshr_miss_rate::cpu.data     0.007408                       # mshr miss rate for WriteReq accesses
system.cpu.dcache.WriteReq_mshr_miss_rate::total     0.007408                       # mshr miss rate for WriteReq accesses
system.cpu.dcache.SoftPFReq_mshr_miss_rate::cpu.data     0.997752                       # mshr miss rate for SoftPFReq accesses
system.cpu.dcache.SoftPFReq_mshr_miss_rate::total     0.997752                       # mshr miss rate for SoftPFReq accesses
system.cpu.dcache.demand_mshr_miss_rate::cpu.data     0.001343                       # mshr miss rate for demand accesses
system.cpu.dcache.demand_mshr_miss_rate::total     0.001343                       # mshr miss rate for demand accesses
system.cpu.dcache.overall_mshr_miss_rate::cpu.data     0.001352                       # mshr miss rate for overall accesses
system.cpu.dcache.overall_mshr_miss_rate::total     0.001352                       # mshr miss rate for overall accesses
system.cpu.dcache.ReadReq_avg_mshr_miss_latency::cpu.data 15238.881203                       # average ReadReq mshr miss latency
system.cpu.dcache.ReadReq_avg_mshr_miss_latency::total 15238.881203                       # average ReadReq mshr miss latency
system.cpu.dcache.WriteReq_avg_mshr_miss_latency::cpu.data 13140.633874                       # average WriteReq mshr miss latency
system.cpu.dcache.WriteReq_avg_mshr_miss_latency::total 13140.633874                       # average WriteReq mshr miss latency
system.cpu.dcache.SoftPFReq_avg_mshr_miss_latency::cpu.data 29005.181613                       # average SoftPFReq mshr miss latency
system.cpu.dcache.SoftPFReq_avg_mshr_miss_latency::total 29005.181613                       # average SoftPFReq mshr miss latency
system.cpu.dcache.demand_avg_mshr_miss_latency::cpu.data 13619.323296                       # average overall mshr miss latency
system.cpu.dcache.demand_avg_mshr_miss_latency::total 13619.323296                       # average overall mshr miss latency
system.cpu.dcache.overall_avg_mshr_miss_latency::cpu.data 13718.453742                       # average overall mshr miss latency
system.cpu.dcache.overall_avg_mshr_miss_latency::total 13718.453742                       # average overall mshr miss latency
system.cpu.dtb_walker_cache.tags.pwrStateResidencyTicks::UNDEFINED 955828509500                       # Cumulative time (in ticks) in various power states
system.cpu.dtb_walker_cache.tags.replacements            0                       # number of replacements
system.cpu.dtb_walker_cache.tags.tagsinuse            0                       # Cycle average of tags in use
system.cpu.dtb_walker_cache.tags.total_refs            0                       # Total number of references to valid blocks.
system.cpu.dtb_walker_cache.tags.sampled_refs            0                       # Sample count of references to valid blocks.
system.cpu.dtb_walker_cache.tags.avg_refs          nan                       # Average number of references to valid blocks.
system.cpu.dtb_walker_cache.tags.warmup_cycle            0                       # Cycle when the warmup percentage was hit.
system.cpu.dtb_walker_cache.tags.tag_accesses            0                       # Number of tag accesses
system.cpu.dtb_walker_cache.tags.data_accesses            0                       # Number of data accesses
system.cpu.dtb_walker_cache.pwrStateResidencyTicks::UNDEFINED 955828509500                       # Cumulative time (in ticks) in various power states
system.cpu.dtb_walker_cache.blocked_cycles::no_mshrs            0                       # number of cycles access was blocked
system.cpu.dtb_walker_cache.blocked_cycles::no_targets            0                       # number of cycles access was blocked
system.cpu.dtb_walker_cache.blocked::no_mshrs            0                       # number of cycles access was blocked
system.cpu.dtb_walker_cache.blocked::no_targets            0                       # number of cycles access was blocked
system.cpu.dtb_walker_cache.avg_blocked_cycles::no_mshrs          nan                       # average number of cycles each access was blocked
system.cpu.dtb_walker_cache.avg_blocked_cycles::no_targets          nan                       # average number of cycles each access was blocked
system.cpu.icache.tags.pwrStateResidencyTicks::UNDEFINED 955828509500                       # Cumulative time (in ticks) in various power states
system.cpu.icache.tags.replacements              4688                       # number of replacements
system.cpu.icache.tags.tagsinuse           510.943604                       # Cycle average of tags in use
system.cpu.icache.tags.total_refs           695988031                       # Total number of references to valid blocks.
system.cpu.icache.tags.sampled_refs              5199                       # Sample count of references to valid blocks.
system.cpu.icache.tags.avg_refs          133869.596269                       # Average number of references to valid blocks.
system.cpu.icache.tags.warmup_cycle                 0                       # Cycle when the warmup percentage was hit.
system.cpu.icache.tags.occ_blocks::cpu.inst   510.943604                       # Average occupied blocks per requestor
system.cpu.icache.tags.occ_percent::cpu.inst     0.997937                       # Average percentage of cache occupancy
system.cpu.icache.tags.occ_percent::total     0.997937                       # Average percentage of cache occupancy
system.cpu.icache.tags.occ_task_id_blocks::1024          511                       # Occupied blocks per task id
system.cpu.icache.tags.age_task_id_blocks_1024::3            7                       # Occupied blocks per task id
system.cpu.icache.tags.age_task_id_blocks_1024::4          504                       # Occupied blocks per task id
system.cpu.icache.tags.occ_task_id_percent::1024     0.998047                       # Percentage of cache occupancy per task id
system.cpu.icache.tags.tag_accesses        1391991659                       # Number of tag accesses
system.cpu.icache.tags.data_accesses       1391991659                       # Number of data accesses
system.cpu.icache.pwrStateResidencyTicks::UNDEFINED 955828509500                       # Cumulative time (in ticks) in various power states
system.cpu.icache.ReadReq_hits::cpu.inst    695988031                       # number of ReadReq hits
system.cpu.icache.ReadReq_hits::total       695988031                       # number of ReadReq hits
system.cpu.icache.demand_hits::cpu.inst     695988031                       # number of demand (read+write) hits
system.cpu.icache.demand_hits::total        695988031                       # number of demand (read+write) hits
system.cpu.icache.overall_hits::cpu.inst    695988031                       # number of overall hits
system.cpu.icache.overall_hits::total       695988031                       # number of overall hits
system.cpu.icache.ReadReq_misses::cpu.inst         5199                       # number of ReadReq misses
system.cpu.icache.ReadReq_misses::total          5199                       # number of ReadReq misses
system.cpu.icache.demand_misses::cpu.inst         5199                       # number of demand (read+write) misses
system.cpu.icache.demand_misses::total           5199                       # number of demand (read+write) misses
system.cpu.icache.overall_misses::cpu.inst         5199                       # number of overall misses
system.cpu.icache.overall_misses::total          5199                       # number of overall misses
system.cpu.icache.ReadReq_miss_latency::cpu.inst    365140000                       # number of ReadReq miss cycles
system.cpu.icache.ReadReq_miss_latency::total    365140000                       # number of ReadReq miss cycles
system.cpu.icache.demand_miss_latency::cpu.inst    365140000                       # number of demand (read+write) miss cycles
system.cpu.icache.demand_miss_latency::total    365140000                       # number of demand (read+write) miss cycles
system.cpu.icache.overall_miss_latency::cpu.inst    365140000                       # number of overall miss cycles
system.cpu.icache.overall_miss_latency::total    365140000                       # number of overall miss cycles
system.cpu.icache.ReadReq_accesses::cpu.inst    695993230                       # number of ReadReq accesses(hits+misses)
system.cpu.icache.ReadReq_accesses::total    695993230                       # number of ReadReq accesses(hits+misses)
system.cpu.icache.demand_accesses::cpu.inst    695993230                       # number of demand (read+write) accesses
system.cpu.icache.demand_accesses::total    695993230                       # number of demand (read+write) accesses
system.cpu.icache.overall_accesses::cpu.inst    695993230                       # number of overall (read+write) accesses
system.cpu.icache.overall_accesses::total    695993230                       # number of overall (read+write) accesses
system.cpu.icache.ReadReq_miss_rate::cpu.inst     0.000007                       # miss rate for ReadReq accesses
system.cpu.icache.ReadReq_miss_rate::total     0.000007                       # miss rate for ReadReq accesses
system.cpu.icache.demand_miss_rate::cpu.inst     0.000007                       # miss rate for demand accesses
system.cpu.icache.demand_miss_rate::total     0.000007                       # miss rate for demand accesses
system.cpu.icache.overall_miss_rate::cpu.inst     0.000007                       # miss rate for overall accesses
system.cpu.icache.overall_miss_rate::total     0.000007                       # miss rate for overall accesses
system.cpu.icache.ReadReq_avg_miss_latency::cpu.inst 70232.737065                       # average ReadReq miss latency
system.cpu.icache.ReadReq_avg_miss_latency::total 70232.737065                       # average ReadReq miss latency
system.cpu.icache.demand_avg_miss_latency::cpu.inst 70232.737065                       # average overall miss latency
system.cpu.icache.demand_avg_miss_latency::total 70232.737065                       # average overall miss latency
system.cpu.icache.overall_avg_miss_latency::cpu.inst 70232.737065                       # average overall miss latency
system.cpu.icache.overall_avg_miss_latency::total 70232.737065                       # average overall miss latency
system.cpu.icache.blocked_cycles::no_mshrs            0                       # number of cycles access was blocked
system.cpu.icache.blocked_cycles::no_targets            0                       # number of cycles access was blocked
system.cpu.icache.blocked::no_mshrs                 0                       # number of cycles access was blocked
system.cpu.icache.blocked::no_targets               0                       # number of cycles access was blocked
system.cpu.icache.avg_blocked_cycles::no_mshrs          nan                       # average number of cycles each access was blocked
system.cpu.icache.avg_blocked_cycles::no_targets          nan                       # average number of cycles each access was blocked
system.cpu.icache.writebacks::writebacks         4688                       # number of writebacks
system.cpu.icache.writebacks::total              4688                       # number of writebacks
system.cpu.icache.ReadReq_mshr_misses::cpu.inst         5199                       # number of ReadReq MSHR misses
system.cpu.icache.ReadReq_mshr_misses::total         5199                       # number of ReadReq MSHR misses
system.cpu.icache.demand_mshr_misses::cpu.inst         5199                       # number of demand (read+write) MSHR misses
system.cpu.icache.demand_mshr_misses::total         5199                       # number of demand (read+write) MSHR misses
system.cpu.icache.overall_mshr_misses::cpu.inst         5199                       # number of overall MSHR misses
system.cpu.icache.overall_mshr_misses::total         5199                       # number of overall MSHR misses
system.cpu.icache.ReadReq_mshr_miss_latency::cpu.inst    359941000                       # number of ReadReq MSHR miss cycles
system.cpu.icache.ReadReq_mshr_miss_latency::total    359941000                       # number of ReadReq MSHR miss cycles
system.cpu.icache.demand_mshr_miss_latency::cpu.inst    359941000                       # number of demand (read+write) MSHR miss cycles
system.cpu.icache.demand_mshr_miss_latency::total    359941000                       # number of demand (read+write) MSHR miss cycles
system.cpu.icache.overall_mshr_miss_latency::cpu.inst    359941000                       # number of overall MSHR miss cycles
system.cpu.icache.overall_mshr_miss_latency::total    359941000                       # number of overall MSHR miss cycles
system.cpu.icache.ReadReq_mshr_miss_rate::cpu.inst     0.000007                       # mshr miss rate for ReadReq accesses
system.cpu.icache.ReadReq_mshr_miss_rate::total     0.000007                       # mshr miss rate for ReadReq accesses
system.cpu.icache.demand_mshr_miss_rate::cpu.inst     0.000007                       # mshr miss rate for demand accesses
system.cpu.icache.demand_mshr_miss_rate::total     0.000007                       # mshr miss rate for demand accesses
system.cpu.icache.overall_mshr_miss_rate::cpu.inst     0.000007                       # mshr miss rate for overall accesses
system.cpu.icache.overall_mshr_miss_rate::total     0.000007                       # mshr miss rate for overall accesses
system.cpu.icache.ReadReq_avg_mshr_miss_latency::cpu.inst 69232.737065                       # average ReadReq mshr miss latency
system.cpu.icache.ReadReq_avg_mshr_miss_latency::total 69232.737065                       # average ReadReq mshr miss latency
system.cpu.icache.demand_avg_mshr_miss_latency::cpu.inst 69232.737065                       # average overall mshr miss latency
system.cpu.icache.demand_avg_mshr_miss_latency::total 69232.737065                       # average overall mshr miss latency
system.cpu.icache.overall_avg_mshr_miss_latency::cpu.inst 69232.737065                       # average overall mshr miss latency
system.cpu.icache.overall_avg_mshr_miss_latency::total 69232.737065                       # average overall mshr miss latency
system.cpu.itb_walker_cache.tags.pwrStateResidencyTicks::UNDEFINED 955828509500                       # Cumulative time (in ticks) in various power states
system.cpu.itb_walker_cache.tags.replacements            0                       # number of replacements
system.cpu.itb_walker_cache.tags.tagsinuse            0                       # Cycle average of tags in use
system.cpu.itb_walker_cache.tags.total_refs            0                       # Total number of references to valid blocks.
system.cpu.itb_walker_cache.tags.sampled_refs            0                       # Sample count of references to valid blocks.
system.cpu.itb_walker_cache.tags.avg_refs          nan                       # Average number of references to valid blocks.
system.cpu.itb_walker_cache.tags.warmup_cycle            0                       # Cycle when the warmup percentage was hit.
system.cpu.itb_walker_cache.tags.tag_accesses            0                       # Number of tag accesses
system.cpu.itb_walker_cache.tags.data_accesses            0                       # Number of data accesses
system.cpu.itb_walker_cache.pwrStateResidencyTicks::UNDEFINED 955828509500                       # Cumulative time (in ticks) in various power states
system.cpu.itb_walker_cache.blocked_cycles::no_mshrs            0                       # number of cycles access was blocked
system.cpu.itb_walker_cache.blocked_cycles::no_targets            0                       # number of cycles access was blocked
system.cpu.itb_walker_cache.blocked::no_mshrs            0                       # number of cycles access was blocked
system.cpu.itb_walker_cache.blocked::no_targets            0                       # number of cycles access was blocked
system.cpu.itb_walker_cache.avg_blocked_cycles::no_mshrs          nan                       # average number of cycles each access was blocked
system.cpu.itb_walker_cache.avg_blocked_cycles::no_targets          nan                       # average number of cycles each access was blocked
system.l2.tags.pwrStateResidencyTicks::UNDEFINED 955828509500                       # Cumulative time (in ticks) in various power states
system.l2.tags.replacements                      1467                       # number of replacements
system.l2.tags.tagsinuse                  5856.791427                       # Cycle average of tags in use
system.l2.tags.total_refs                      690265                       # Total number of references to valid blocks.
system.l2.tags.sampled_refs                      7362                       # Sample count of references to valid blocks.
system.l2.tags.avg_refs                     93.760527                       # Average number of references to valid blocks.
system.l2.tags.warmup_cycle                         0                       # Cycle when the warmup percentage was hit.
system.l2.tags.occ_blocks::writebacks       25.754861                       # Average occupied blocks per requestor
system.l2.tags.occ_blocks::cpu.inst       1261.273577                       # Average occupied blocks per requestor
system.l2.tags.occ_blocks::cpu.data       4569.762988                       # Average occupied blocks per requestor
system.l2.tags.occ_percent::writebacks       0.001572                       # Average percentage of cache occupancy
system.l2.tags.occ_percent::cpu.inst         0.076982                       # Average percentage of cache occupancy
system.l2.tags.occ_percent::cpu.data         0.278916                       # Average percentage of cache occupancy
system.l2.tags.occ_percent::total            0.357470                       # Average percentage of cache occupancy
system.l2.tags.occ_task_id_blocks::1024          5895                       # Occupied blocks per task id
system.l2.tags.age_task_id_blocks_1024::3            2                       # Occupied blocks per task id
system.l2.tags.age_task_id_blocks_1024::4         5893                       # Occupied blocks per task id
system.l2.tags.occ_task_id_percent::1024     0.359802                       # Percentage of cache occupancy per task id
system.l2.tags.tag_accesses                   1402714                       # Number of tag accesses
system.l2.tags.data_accesses                  1402714                       # Number of data accesses
system.l2.pwrStateResidencyTicks::UNDEFINED 955828509500                       # Cumulative time (in ticks) in various power states
system.l2.WritebackDirty_hits::writebacks       338185                       # number of WritebackDirty hits
system.l2.WritebackDirty_hits::total           338185                       # number of WritebackDirty hits
system.l2.WritebackClean_hits::writebacks         4687                       # number of WritebackClean hits
system.l2.WritebackClean_hits::total             4687                       # number of WritebackClean hits
system.l2.ReadExReq_hits::cpu.data             260618                       # number of ReadExReq hits
system.l2.ReadExReq_hits::total                260618                       # number of ReadExReq hits
system.l2.ReadCleanReq_hits::cpu.inst            3510                       # number of ReadCleanReq hits
system.l2.ReadCleanReq_hits::total               3510                       # number of ReadCleanReq hits
system.l2.ReadSharedReq_hits::cpu.data          78773                       # number of ReadSharedReq hits
system.l2.ReadSharedReq_hits::total             78773                       # number of ReadSharedReq hits
system.l2.demand_hits::cpu.inst                  3510                       # number of demand (read+write) hits
system.l2.demand_hits::cpu.data                339391                       # number of demand (read+write) hits
system.l2.demand_hits::total                   342901                       # number of demand (read+write) hits
system.l2.overall_hits::cpu.inst                 3510                       # number of overall hits
system.l2.overall_hits::cpu.data               339391                       # number of overall hits
system.l2.overall_hits::total                  342901                       # number of overall hits
system.l2.ReadExReq_misses::cpu.data             3504                       # number of ReadExReq misses
system.l2.ReadExReq_misses::total                3504                       # number of ReadExReq misses
system.l2.ReadCleanReq_misses::cpu.inst          1689                       # number of ReadCleanReq misses
system.l2.ReadCleanReq_misses::total             1689                       # number of ReadCleanReq misses
system.l2.ReadSharedReq_misses::cpu.data         1512                       # number of ReadSharedReq misses
system.l2.ReadSharedReq_misses::total            1512                       # number of ReadSharedReq misses
system.l2.demand_misses::cpu.inst                1689                       # number of demand (read+write) misses
system.l2.demand_misses::cpu.data                5016                       # number of demand (read+write) misses
system.l2.demand_misses::total                   6705                       # number of demand (read+write) misses
system.l2.overall_misses::cpu.inst               1689                       # number of overall misses
system.l2.overall_misses::cpu.data               5016                       # number of overall misses
system.l2.overall_misses::total                  6705                       # number of overall misses
system.l2.ReadExReq_miss_latency::cpu.data    337682500                       # number of ReadExReq miss cycles
system.l2.ReadExReq_miss_latency::total     337682500                       # number of ReadExReq miss cycles
system.l2.ReadCleanReq_miss_latency::cpu.inst    315118500                       # number of ReadCleanReq miss cycles
system.l2.ReadCleanReq_miss_latency::total    315118500                       # number of ReadCleanReq miss cycles
system.l2.ReadSharedReq_miss_latency::cpu.data    306445500                       # number of ReadSharedReq miss cycles
system.l2.ReadSharedReq_miss_latency::total    306445500                       # number of ReadSharedReq miss cycles
system.l2.demand_miss_latency::cpu.inst     315118500                       # number of demand (read+write) miss cycles
system.l2.demand_miss_latency::cpu.data     644128000                       # number of demand (read+write) miss cycles
system.l2.demand_miss_latency::total        959246500                       # number of demand (read+write) miss cycles
system.l2.overall_miss_latency::cpu.inst    315118500                       # number of overall miss cycles
system.l2.overall_miss_latency::cpu.data    644128000                       # number of overall miss cycles
system.l2.overall_miss_latency::total       959246500                       # number of overall miss cycles
system.l2.WritebackDirty_accesses::writebacks       338185                       # number of WritebackDirty accesses(hits+misses)
system.l2.WritebackDirty_accesses::total       338185                       # number of WritebackDirty accesses(hits+misses)
system.l2.WritebackClean_accesses::writebacks         4687                       # number of WritebackClean accesses(hits+misses)
system.l2.WritebackClean_accesses::total         4687                       # number of WritebackClean accesses(hits+misses)
system.l2.ReadExReq_accesses::cpu.data         264122                       # number of ReadExReq accesses(hits+misses)
system.l2.ReadExReq_accesses::total            264122                       # number of ReadExReq accesses(hits+misses)
system.l2.ReadCleanReq_accesses::cpu.inst         5199                       # number of ReadCleanReq accesses(hits+misses)
system.l2.ReadCleanReq_accesses::total           5199                       # number of ReadCleanReq accesses(hits+misses)
system.l2.ReadSharedReq_accesses::cpu.data        80285                       # number of ReadSharedReq accesses(hits+misses)
system.l2.ReadSharedReq_accesses::total         80285                       # number of ReadSharedReq accesses(hits+misses)
system.l2.demand_accesses::cpu.inst              5199                       # number of demand (read+write) accesses
system.l2.demand_accesses::cpu.data            344407                       # number of demand (read+write) accesses
system.l2.demand_accesses::total               349606                       # number of demand (read+write) accesses
system.l2.overall_accesses::cpu.inst             5199                       # number of overall (read+write) accesses
system.l2.overall_accesses::cpu.data           344407                       # number of overall (read+write) accesses
system.l2.overall_accesses::total              349606                       # number of overall (read+write) accesses
system.l2.ReadExReq_miss_rate::cpu.data      0.013267                       # miss rate for ReadExReq accesses
system.l2.ReadExReq_miss_rate::total         0.013267                       # miss rate for ReadExReq accesses
system.l2.ReadCleanReq_miss_rate::cpu.inst     0.324870                       # miss rate for ReadCleanReq accesses
system.l2.ReadCleanReq_miss_rate::total      0.324870                       # miss rate for ReadCleanReq accesses
system.l2.ReadSharedReq_miss_rate::cpu.data     0.018833                       # miss rate for ReadSharedReq accesses
system.l2.ReadSharedReq_miss_rate::total     0.018833                       # miss rate for ReadSharedReq accesses
system.l2.demand_miss_rate::cpu.inst         0.324870                       # miss rate for demand accesses
system.l2.demand_miss_rate::cpu.data         0.014564                       # miss rate for demand accesses
system.l2.demand_miss_rate::total            0.019179                       # miss rate for demand accesses
system.l2.overall_miss_rate::cpu.inst        0.324870                       # miss rate for overall accesses
system.l2.overall_miss_rate::cpu.data        0.014564                       # miss rate for overall accesses
system.l2.overall_miss_rate::total           0.019179                       # miss rate for overall accesses
system.l2.ReadExReq_avg_miss_latency::cpu.data 96370.576484                       # average ReadExReq miss latency
system.l2.ReadExReq_avg_miss_latency::total 96370.576484                       # average ReadExReq miss latency
system.l2.ReadCleanReq_avg_miss_latency::cpu.inst 186571.047957                       # average ReadCleanReq miss latency
system.l2.ReadCleanReq_avg_miss_latency::total 186571.047957                       # average ReadCleanReq miss latency
system.l2.ReadSharedReq_avg_miss_latency::cpu.data 202675.595238                       # average ReadSharedReq miss latency
system.l2.ReadSharedReq_avg_miss_latency::total 202675.595238                       # average ReadSharedReq miss latency
system.l2.demand_avg_miss_latency::cpu.inst 186571.047957                       # average overall miss latency
system.l2.demand_avg_miss_latency::cpu.data 128414.673046                       # average overall miss latency
system.l2.demand_avg_miss_latency::total 143064.354959                       # average overall miss latency
system.l2.overall_avg_miss_latency::cpu.inst 186571.047957                       # average overall miss latency
system.l2.overall_avg_miss_latency::cpu.data 128414.673046                       # average overall miss latency
system.l2.overall_avg_miss_latency::total 143064.354959                       # average overall miss latency
system.l2.blocked_cycles::no_mshrs                  0                       # number of cycles access was blocked
system.l2.blocked_cycles::no_targets                0                       # number of cycles access was blocked
system.l2.blocked::no_mshrs                         0                       # number of cycles access was blocked
system.l2.blocked::no_targets                       0                       # number of cycles access was blocked
system.l2.avg_blocked_cycles::no_mshrs            nan                       # average number of cycles each access was blocked
system.l2.avg_blocked_cycles::no_targets          nan                       # average number of cycles each access was blocked
system.l2.writebacks::writebacks                    1                       # number of writebacks
system.l2.writebacks::total                         1                       # number of writebacks
system.l2.CleanEvict_mshr_misses::writebacks           49                       # number of CleanEvict MSHR misses
system.l2.CleanEvict_mshr_misses::total            49                       # number of CleanEvict MSHR misses
system.l2.ReadExReq_mshr_misses::cpu.data         3504                       # number of ReadExReq MSHR misses
system.l2.ReadExReq_mshr_misses::total           3504                       # number of ReadExReq MSHR misses
system.l2.ReadCleanReq_mshr_misses::cpu.inst         1689                       # number of ReadCleanReq MSHR misses
system.l2.ReadCleanReq_mshr_misses::total         1689                       # number of ReadCleanReq MSHR misses
system.l2.ReadSharedReq_mshr_misses::cpu.data         1512                       # number of ReadSharedReq MSHR misses
system.l2.ReadSharedReq_mshr_misses::total         1512                       # number of ReadSharedReq MSHR misses
system.l2.demand_mshr_misses::cpu.inst           1689                       # number of demand (read+write) MSHR misses
system.l2.demand_mshr_misses::cpu.data           5016                       # number of demand (read+write) MSHR misses
system.l2.demand_mshr_misses::total              6705                       # number of demand (read+write) MSHR misses
system.l2.overall_mshr_misses::cpu.inst          1689                       # number of overall MSHR misses
system.l2.overall_mshr_misses::cpu.data          5016                       # number of overall MSHR misses
system.l2.overall_mshr_misses::total             6705                       # number of overall MSHR misses
system.l2.ReadExReq_mshr_miss_latency::cpu.data    302642500                       # number of ReadExReq MSHR miss cycles
system.l2.ReadExReq_mshr_miss_latency::total    302642500                       # number of ReadExReq MSHR miss cycles
system.l2.ReadCleanReq_mshr_miss_latency::cpu.inst    298228500                       # number of ReadCleanReq MSHR miss cycles
system.l2.ReadCleanReq_mshr_miss_latency::total    298228500                       # number of ReadCleanReq MSHR miss cycles
system.l2.ReadSharedReq_mshr_miss_latency::cpu.data    291325500                       # number of ReadSharedReq MSHR miss cycles
system.l2.ReadSharedReq_mshr_miss_latency::total    291325500                       # number of ReadSharedReq MSHR miss cycles
system.l2.demand_mshr_miss_latency::cpu.inst    298228500                       # number of demand (read+write) MSHR miss cycles
system.l2.demand_mshr_miss_latency::cpu.data    593968000                       # number of demand (read+write) MSHR miss cycles
system.l2.demand_mshr_miss_latency::total    892196500                       # number of demand (read+write) MSHR miss cycles
system.l2.overall_mshr_miss_latency::cpu.inst    298228500                       # number of overall MSHR miss cycles
system.l2.overall_mshr_miss_latency::cpu.data    593968000                       # number of overall MSHR miss cycles
system.l2.overall_mshr_miss_latency::total    892196500                       # number of overall MSHR miss cycles
system.l2.CleanEvict_mshr_miss_rate::writebacks          inf                       # mshr miss rate for CleanEvict accesses
system.l2.CleanEvict_mshr_miss_rate::total          inf                       # mshr miss rate for CleanEvict accesses
system.l2.ReadExReq_mshr_miss_rate::cpu.data     0.013267                       # mshr miss rate for ReadExReq accesses
system.l2.ReadExReq_mshr_miss_rate::total     0.013267                       # mshr miss rate for ReadExReq accesses
system.l2.ReadCleanReq_mshr_miss_rate::cpu.inst     0.324870                       # mshr miss rate for ReadCleanReq accesses
system.l2.ReadCleanReq_mshr_miss_rate::total     0.324870                       # mshr miss rate for ReadCleanReq accesses
system.l2.ReadSharedReq_mshr_miss_rate::cpu.data     0.018833                       # mshr miss rate for ReadSharedReq accesses
system.l2.ReadSharedReq_mshr_miss_rate::total     0.018833                       # mshr miss rate for ReadSharedReq accesses
system.l2.demand_mshr_miss_rate::cpu.inst     0.324870                       # mshr miss rate for demand accesses
system.l2.demand_mshr_miss_rate::cpu.data     0.014564                       # mshr miss rate for demand accesses
system.l2.demand_mshr_miss_rate::total       0.019179                       # mshr miss rate for demand accesses
system.l2.overall_mshr_miss_rate::cpu.inst     0.324870                       # mshr miss rate for overall accesses
system.l2.overall_mshr_miss_rate::cpu.data     0.014564                       # mshr miss rate for overall accesses
system.l2.overall_mshr_miss_rate::total      0.019179                       # mshr miss rate for overall accesses
system.l2.ReadExReq_avg_mshr_miss_latency::cpu.data 86370.576484                       # average ReadExReq mshr miss latency
system.l2.ReadExReq_avg_mshr_miss_latency::total 86370.576484                       # average ReadExReq mshr miss latency
system.l2.ReadCleanReq_avg_mshr_miss_latency::cpu.inst 176571.047957                       # average ReadCleanReq mshr miss latency
system.l2.ReadCleanReq_avg_mshr_miss_latency::total 176571.047957                       # average ReadCleanReq mshr miss latency
system.l2.ReadSharedReq_avg_mshr_miss_latency::cpu.data 192675.595238                       # average ReadSharedReq mshr miss latency
system.l2.ReadSharedReq_avg_mshr_miss_latency::total 192675.595238                       # average ReadSharedReq mshr miss latency
system.l2.demand_avg_mshr_miss_latency::cpu.inst 176571.047957                       # average overall mshr miss latency
system.l2.demand_avg_mshr_miss_latency::cpu.data 118414.673046                       # average overall mshr miss latency
system.l2.demand_avg_mshr_miss_latency::total 133064.354959                       # average overall mshr miss latency
system.l2.overall_avg_mshr_miss_latency::cpu.inst 176571.047957                       # average overall mshr miss latency
system.l2.overall_avg_mshr_miss_latency::cpu.data 118414.673046                       # average overall mshr miss latency
system.l2.overall_avg_mshr_miss_latency::total 133064.354959                       # average overall mshr miss latency
system.membus.snoop_filter.tot_requests          7482                       # Total number of requests made to the snoop filter.
system.membus.snoop_filter.hit_single_requests          777                       # Number of requests hitting in the snoop filter with a single holder of the requested data.
system.membus.snoop_filter.hit_multi_requests            0                       # Number of requests hitting in the snoop filter with multiple (>1) holders of the requested data.
system.membus.snoop_filter.tot_snoops               0                       # Total number of snoops made to the snoop filter.
system.membus.snoop_filter.hit_single_snoops            0                       # Number of snoops hitting in the snoop filter with a single holder of the requested data.
system.membus.snoop_filter.hit_multi_snoops            0                       # Number of snoops hitting in the snoop filter with multiple (>1) holders of the requested data.
system.membus.pwrStateResidencyTicks::UNDEFINED 955828509500                       # Cumulative time (in ticks) in various power states
system.membus.trans_dist::ReadResp               3201                       # Transaction distribution
system.membus.trans_dist::WritebackDirty            1                       # Transaction distribution
system.membus.trans_dist::CleanEvict              776                       # Transaction distribution
system.membus.trans_dist::ReadExReq              3504                       # Transaction distribution
system.membus.trans_dist::ReadExResp             3504                       # Transaction distribution
system.membus.trans_dist::ReadSharedReq          3201                       # Transaction distribution
system.membus.pkt_count_system.l2.mem_side::system.mem_ctrls.port        14187                       # Packet count per connected master and slave (bytes)
system.membus.pkt_count_system.l2.mem_side::total        14187                       # Packet count per connected master and slave (bytes)
system.membus.pkt_count::total                  14187                       # Packet count per connected master and slave (bytes)
system.membus.pkt_size_system.l2.mem_side::system.mem_ctrls.port       429184                       # Cumulative packet size per connected master and slave (bytes)
system.membus.pkt_size_system.l2.mem_side::total       429184                       # Cumulative packet size per connected master and slave (bytes)
system.membus.pkt_size::total                  429184                       # Cumulative packet size per connected master and slave (bytes)
system.membus.snoops                                0                       # Total snoops (count)
system.membus.snoopTraffic                          0                       # Total snoop traffic (bytes)
system.membus.snoop_fanout::samples              6705                       # Request fanout histogram
system.membus.snoop_fanout::mean                    0                       # Request fanout histogram
system.membus.snoop_fanout::stdev                   0                       # Request fanout histogram
system.membus.snoop_fanout::underflows              0      0.00%      0.00% # Request fanout histogram
system.membus.snoop_fanout::0                    6705    100.00%    100.00% # Request fanout histogram
system.membus.snoop_fanout::1                       0      0.00%    100.00% # Request fanout histogram
system.membus.snoop_fanout::overflows               0      0.00%    100.00% # Request fanout histogram
system.membus.snoop_fanout::min_value               0                       # Request fanout histogram
system.membus.snoop_fanout::max_value               0                       # Request fanout histogram
system.membus.snoop_fanout::total                6705                       # Request fanout histogram
system.membus.reqLayer2.occupancy             8003000                       # Layer occupancy (ticks)
system.membus.reqLayer2.utilization               0.0                       # Layer utilization (%)
system.membus.respLayer1.occupancy           35923500                       # Layer occupancy (ticks)
system.membus.respLayer1.utilization              0.0                       # Layer utilization (%)
system.tol2bus.snoop_filter.tot_requests       697677                       # Total number of requests made to the snoop filter.
system.tol2bus.snoop_filter.hit_single_requests       348071                       # Number of requests hitting in the snoop filter with a single holder of the requested data.
system.tol2bus.snoop_filter.hit_multi_requests            1                       # Number of requests hitting in the snoop filter with multiple (>1) holders of the requested data.
system.tol2bus.snoop_filter.tot_snoops            739                       # Total number of snoops made to the snoop filter.
system.tol2bus.snoop_filter.hit_single_snoops          739                       # Number of snoops hitting in the snoop filter with a single holder of the requested data.
system.tol2bus.snoop_filter.hit_multi_snoops            0                       # Number of snoops hitting in the snoop filter with multiple (>1) holders of the requested data.
system.tol2bus.pwrStateResidencyTicks::UNDEFINED 955828509500                       # Cumulative time (in ticks) in various power states
system.tol2bus.trans_dist::ReadResp             85484                       # Transaction distribution
system.tol2bus.trans_dist::WritebackDirty       338186                       # Transaction distribution
system.tol2bus.trans_dist::WritebackClean         4688                       # Transaction distribution
system.tol2bus.trans_dist::CleanEvict            6664                       # Transaction distribution
system.tol2bus.trans_dist::ReadExReq           264122                       # Transaction distribution
system.tol2bus.trans_dist::ReadExResp          264122                       # Transaction distribution
system.tol2bus.trans_dist::ReadCleanReq          5199                       # Transaction distribution
system.tol2bus.trans_dist::ReadSharedReq        80285                       # Transaction distribution
system.tol2bus.pkt_count_system.cpu.icache.mem_side::system.l2.cpu_side        15086                       # Packet count per connected master and slave (bytes)
system.tol2bus.pkt_count_system.cpu.dcache.mem_side::system.l2.cpu_side      1032197                       # Packet count per connected master and slave (bytes)
system.tol2bus.pkt_count::total               1047283                       # Packet count per connected master and slave (bytes)
system.tol2bus.pkt_size_system.cpu.icache.mem_side::system.l2.cpu_side       632768                       # Cumulative packet size per connected master and slave (bytes)
system.tol2bus.pkt_size_system.cpu.dcache.mem_side::system.l2.cpu_side     43685888                       # Cumulative packet size per connected master and slave (bytes)
system.tol2bus.pkt_size::total               44318656                       # Cumulative packet size per connected master and slave (bytes)
system.tol2bus.snoops                            1467                       # Total snoops (count)
system.tol2bus.snoopTraffic                        64                       # Total snoop traffic (bytes)
system.tol2bus.snoop_fanout::samples           351073                       # Request fanout histogram
system.tol2bus.snoop_fanout::mean            0.002108                       # Request fanout histogram
system.tol2bus.snoop_fanout::stdev           0.045863                       # Request fanout histogram
system.tol2bus.snoop_fanout::underflows             0      0.00%      0.00% # Request fanout histogram
system.tol2bus.snoop_fanout::0                 350333     99.79%     99.79% # Request fanout histogram
system.tol2bus.snoop_fanout::1                    740      0.21%    100.00% # Request fanout histogram
system.tol2bus.snoop_fanout::2                      0      0.00%    100.00% # Request fanout histogram
system.tol2bus.snoop_fanout::3                      0      0.00%    100.00% # Request fanout histogram
system.tol2bus.snoop_fanout::4                      0      0.00%    100.00% # Request fanout histogram
system.tol2bus.snoop_fanout::overflows              0      0.00%    100.00% # Request fanout histogram
system.tol2bus.snoop_fanout::min_value              0                       # Request fanout histogram
system.tol2bus.snoop_fanout::max_value              1                       # Request fanout histogram
system.tol2bus.snoop_fanout::total             351073                       # Request fanout histogram
system.tol2bus.reqLayer0.occupancy          691711500                       # Layer occupancy (ticks)
system.tol2bus.reqLayer0.utilization              0.1                       # Layer utilization (%)
system.tol2bus.respLayer0.occupancy           7798500                       # Layer occupancy (ticks)
system.tol2bus.respLayer0.utilization             0.0                       # Layer utilization (%)
system.tol2bus.respLayer1.occupancy         516610500                       # Layer occupancy (ticks)
system.tol2bus.respLayer1.utilization             0.1                       # Layer utilization (%)

---------- End Simulation Statistics   ----------
