
---------- Begin Simulation Statistics ----------
sim_seconds                                  0.954625                       # Number of seconds simulated
sim_ticks                                954624651500                       # Number of ticks simulated
final_tick                               954624651500                       # Number of ticks from beginning of simulation (restored from checkpoints and never reset)
sim_freq                                 1000000000000                       # Frequency of simulated ticks
host_inst_rate                                 611109                       # Simulator instruction rate (inst/s)
host_op_rate                                   788062                       # Simulator op (including micro ops) rate (op/s)
host_tick_rate                             1166758860                       # Simulator tick rate (ticks/s)
host_mem_usage                                 668528                       # Number of bytes of host memory used
host_seconds                                   818.19                       # Real time elapsed on the host
sim_insts                                   500000000                       # Number of instructions simulated
sim_ops                                     644780824                       # Number of ops (including micro ops) simulated
system.voltage_domain.voltage                       1                       # Voltage in Volts
system.clk_domain.clock                          1000                       # Clock period in ticks
system.mem_ctrls.pwrStateResidencyTicks::UNDEFINED 954624651500                       # Cumulative time (in ticks) in various power states
system.mem_ctrls.bytes_read::cpu.inst           81440                       # Number of bytes read from this memory
system.mem_ctrls.bytes_read::cpu.data          300416                       # Number of bytes read from this memory
system.mem_ctrls.bytes_read::total             381856                       # Number of bytes read from this memory
system.mem_ctrls.bytes_inst_read::cpu.inst        81440                       # Number of instructions bytes read from this memory
system.mem_ctrls.bytes_inst_read::total         81440                       # Number of instructions bytes read from this memory
system.mem_ctrls.bytes_written::writebacks          640                       # Number of bytes written to this memory
system.mem_ctrls.bytes_written::total             640                       # Number of bytes written to this memory
system.mem_ctrls.num_reads::cpu.inst             2545                       # Number of read requests responded to by this memory
system.mem_ctrls.num_reads::cpu.data             9388                       # Number of read requests responded to by this memory
system.mem_ctrls.num_reads::total               11933                       # Number of read requests responded to by this memory
system.mem_ctrls.num_writes::writebacks            20                       # Number of write requests responded to by this memory
system.mem_ctrls.num_writes::total                 20                       # Number of write requests responded to by this memory
system.mem_ctrls.bw_read::cpu.inst              85311                       # Total read bandwidth from this memory (bytes/s)
system.mem_ctrls.bw_read::cpu.data             314695                       # Total read bandwidth from this memory (bytes/s)
system.mem_ctrls.bw_read::total                400006                       # Total read bandwidth from this memory (bytes/s)
system.mem_ctrls.bw_inst_read::cpu.inst         85311                       # Instruction read bandwidth from this memory (bytes/s)
system.mem_ctrls.bw_inst_read::total            85311                       # Instruction read bandwidth from this memory (bytes/s)
system.mem_ctrls.bw_write::writebacks             670                       # Write bandwidth from this memory (bytes/s)
system.mem_ctrls.bw_write::total                  670                       # Write bandwidth from this memory (bytes/s)
system.mem_ctrls.bw_total::writebacks             670                       # Total bandwidth to/from this memory (bytes/s)
system.mem_ctrls.bw_total::cpu.inst             85311                       # Total bandwidth to/from this memory (bytes/s)
system.mem_ctrls.bw_total::cpu.data            314695                       # Total bandwidth to/from this memory (bytes/s)
system.mem_ctrls.bw_total::total               400677                       # Total bandwidth to/from this memory (bytes/s)
system.mem_ctrls.readReqs                       11933                       # Number of read requests accepted
system.mem_ctrls.writeReqs                         20                       # Number of write requests accepted
system.mem_ctrls.readBursts                     11933                       # Number of DRAM read bursts, including those serviced by the write queue
system.mem_ctrls.writeBursts                       20                       # Number of DRAM write bursts, including those merged in the write queue
system.mem_ctrls.bytesReadDRAM                 762432                       # Total number of bytes read from DRAM
system.mem_ctrls.bytesReadWrQ                    1280                       # Total number of bytes read from write queue
system.mem_ctrls.bytesWritten                       0                       # Total number of bytes written to DRAM
system.mem_ctrls.bytesReadSys                  381856                       # Total read bytes from the system interface side
system.mem_ctrls.bytesWrittenSys                  640                       # Total written bytes from the system interface side
system.mem_ctrls.servicedByWrQ                     20                       # Number of DRAM read bursts serviced by the write queue
system.mem_ctrls.mergedWrBursts                    19                       # Number of DRAM write bursts merged with an existing one
system.mem_ctrls.neitherReadNorWriteReqs            0                       # Number of requests that are neither read nor write
system.mem_ctrls.perBankRdBursts::0               607                       # Per bank write bursts
system.mem_ctrls.perBankRdBursts::1               674                       # Per bank write bursts
system.mem_ctrls.perBankRdBursts::2               799                       # Per bank write bursts
system.mem_ctrls.perBankRdBursts::3               610                       # Per bank write bursts
system.mem_ctrls.perBankRdBursts::4              1300                       # Per bank write bursts
system.mem_ctrls.perBankRdBursts::5               770                       # Per bank write bursts
system.mem_ctrls.perBankRdBursts::6               660                       # Per bank write bursts
system.mem_ctrls.perBankRdBursts::7               792                       # Per bank write bursts
system.mem_ctrls.perBankRdBursts::8               709                       # Per bank write bursts
system.mem_ctrls.perBankRdBursts::9               714                       # Per bank write bursts
system.mem_ctrls.perBankRdBursts::10              820                       # Per bank write bursts
system.mem_ctrls.perBankRdBursts::11              899                       # Per bank write bursts
system.mem_ctrls.perBankRdBursts::12              702                       # Per bank write bursts
system.mem_ctrls.perBankRdBursts::13              628                       # Per bank write bursts
system.mem_ctrls.perBankRdBursts::14              607                       # Per bank write bursts
system.mem_ctrls.perBankRdBursts::15              622                       # Per bank write bursts
system.mem_ctrls.perBankWrBursts::0                 0                       # Per bank write bursts
system.mem_ctrls.perBankWrBursts::1                 0                       # Per bank write bursts
system.mem_ctrls.perBankWrBursts::2                 0                       # Per bank write bursts
system.mem_ctrls.perBankWrBursts::3                 0                       # Per bank write bursts
system.mem_ctrls.perBankWrBursts::4                 0                       # Per bank write bursts
system.mem_ctrls.perBankWrBursts::5                 0                       # Per bank write bursts
system.mem_ctrls.perBankWrBursts::6                 0                       # Per bank write bursts
system.mem_ctrls.perBankWrBursts::7                 0                       # Per bank write bursts
system.mem_ctrls.perBankWrBursts::8                 0                       # Per bank write bursts
system.mem_ctrls.perBankWrBursts::9                 0                       # Per bank write bursts
system.mem_ctrls.perBankWrBursts::10                0                       # Per bank write bursts
system.mem_ctrls.perBankWrBursts::11                0                       # Per bank write bursts
system.mem_ctrls.perBankWrBursts::12                0                       # Per bank write bursts
system.mem_ctrls.perBankWrBursts::13                0                       # Per bank write bursts
system.mem_ctrls.perBankWrBursts::14                0                       # Per bank write bursts
system.mem_ctrls.perBankWrBursts::15                0                       # Per bank write bursts
system.mem_ctrls.numRdRetry                         0                       # Number of times read queue was full causing retry
system.mem_ctrls.numWrRetry                         0                       # Number of times write queue was full causing retry
system.mem_ctrls.totGap                  952232526500                       # Total gap between requests
system.mem_ctrls.readPktSize::0                     0                       # Read request sizes (log2)
system.mem_ctrls.readPktSize::1                     0                       # Read request sizes (log2)
system.mem_ctrls.readPktSize::2                     0                       # Read request sizes (log2)
system.mem_ctrls.readPktSize::3                     0                       # Read request sizes (log2)
system.mem_ctrls.readPktSize::4                     0                       # Read request sizes (log2)
system.mem_ctrls.readPktSize::5                 11933                       # Read request sizes (log2)
system.mem_ctrls.readPktSize::6                     0                       # Read request sizes (log2)
system.mem_ctrls.writePktSize::0                    0                       # Write request sizes (log2)
system.mem_ctrls.writePktSize::1                    0                       # Write request sizes (log2)
system.mem_ctrls.writePktSize::2                    0                       # Write request sizes (log2)
system.mem_ctrls.writePktSize::3                    0                       # Write request sizes (log2)
system.mem_ctrls.writePktSize::4                    0                       # Write request sizes (log2)
system.mem_ctrls.writePktSize::5                   20                       # Write request sizes (log2)
system.mem_ctrls.writePktSize::6                    0                       # Write request sizes (log2)
system.mem_ctrls.rdQLenPdf::0                   11429                       # What read queue length does an incoming req see
system.mem_ctrls.rdQLenPdf::1                     245                       # What read queue length does an incoming req see
system.mem_ctrls.rdQLenPdf::2                     237                       # What read queue length does an incoming req see
system.mem_ctrls.rdQLenPdf::3                       2                       # What read queue length does an incoming req see
system.mem_ctrls.rdQLenPdf::4                       0                       # What read queue length does an incoming req see
system.mem_ctrls.rdQLenPdf::5                       0                       # What read queue length does an incoming req see
system.mem_ctrls.rdQLenPdf::6                       0                       # What read queue length does an incoming req see
system.mem_ctrls.rdQLenPdf::7                       0                       # What read queue length does an incoming req see
system.mem_ctrls.rdQLenPdf::8                       0                       # What read queue length does an incoming req see
system.mem_ctrls.rdQLenPdf::9                       0                       # What read queue length does an incoming req see
system.mem_ctrls.rdQLenPdf::10                      0                       # What read queue length does an incoming req see
system.mem_ctrls.rdQLenPdf::11                      0                       # What read queue length does an incoming req see
system.mem_ctrls.rdQLenPdf::12                      0                       # What read queue length does an incoming req see
system.mem_ctrls.rdQLenPdf::13                      0                       # What read queue length does an incoming req see
system.mem_ctrls.rdQLenPdf::14                      0                       # What read queue length does an incoming req see
system.mem_ctrls.rdQLenPdf::15                      0                       # What read queue length does an incoming req see
system.mem_ctrls.rdQLenPdf::16                      0                       # What read queue length does an incoming req see
system.mem_ctrls.rdQLenPdf::17                      0                       # What read queue length does an incoming req see
system.mem_ctrls.rdQLenPdf::18                      0                       # What read queue length does an incoming req see
system.mem_ctrls.rdQLenPdf::19                      0                       # What read queue length does an incoming req see
system.mem_ctrls.rdQLenPdf::20                      0                       # What read queue length does an incoming req see
system.mem_ctrls.rdQLenPdf::21                      0                       # What read queue length does an incoming req see
system.mem_ctrls.rdQLenPdf::22                      0                       # What read queue length does an incoming req see
system.mem_ctrls.rdQLenPdf::23                      0                       # What read queue length does an incoming req see
system.mem_ctrls.rdQLenPdf::24                      0                       # What read queue length does an incoming req see
system.mem_ctrls.rdQLenPdf::25                      0                       # What read queue length does an incoming req see
system.mem_ctrls.rdQLenPdf::26                      0                       # What read queue length does an incoming req see
system.mem_ctrls.rdQLenPdf::27                      0                       # What read queue length does an incoming req see
system.mem_ctrls.rdQLenPdf::28                      0                       # What read queue length does an incoming req see
system.mem_ctrls.rdQLenPdf::29                      0                       # What read queue length does an incoming req see
system.mem_ctrls.rdQLenPdf::30                      0                       # What read queue length does an incoming req see
system.mem_ctrls.rdQLenPdf::31                      0                       # What read queue length does an incoming req see
system.mem_ctrls.wrQLenPdf::0                       1                       # What write queue length does an incoming req see
system.mem_ctrls.wrQLenPdf::1                       0                       # What write queue length does an incoming req see
system.mem_ctrls.wrQLenPdf::2                       0                       # What write queue length does an incoming req see
system.mem_ctrls.wrQLenPdf::3                       0                       # What write queue length does an incoming req see
system.mem_ctrls.wrQLenPdf::4                       0                       # What write queue length does an incoming req see
system.mem_ctrls.wrQLenPdf::5                       0                       # What write queue length does an incoming req see
system.mem_ctrls.wrQLenPdf::6                       0                       # What write queue length does an incoming req see
system.mem_ctrls.wrQLenPdf::7                       0                       # What write queue length does an incoming req see
system.mem_ctrls.wrQLenPdf::8                       0                       # What write queue length does an incoming req see
system.mem_ctrls.wrQLenPdf::9                       0                       # What write queue length does an incoming req see
system.mem_ctrls.wrQLenPdf::10                      0                       # What write queue length does an incoming req see
system.mem_ctrls.wrQLenPdf::11                      0                       # What write queue length does an incoming req see
system.mem_ctrls.wrQLenPdf::12                      0                       # What write queue length does an incoming req see
system.mem_ctrls.wrQLenPdf::13                      0                       # What write queue length does an incoming req see
system.mem_ctrls.wrQLenPdf::14                      0                       # What write queue length does an incoming req see
system.mem_ctrls.wrQLenPdf::15                      0                       # What write queue length does an incoming req see
system.mem_ctrls.wrQLenPdf::16                      0                       # What write queue length does an incoming req see
system.mem_ctrls.wrQLenPdf::17                      0                       # What write queue length does an incoming req see
system.mem_ctrls.wrQLenPdf::18                      0                       # What write queue length does an incoming req see
system.mem_ctrls.wrQLenPdf::19                      0                       # What write queue length does an incoming req see
system.mem_ctrls.wrQLenPdf::20                      0                       # What write queue length does an incoming req see
system.mem_ctrls.wrQLenPdf::21                      0                       # What write queue length does an incoming req see
system.mem_ctrls.wrQLenPdf::22                      0                       # What write queue length does an incoming req see
system.mem_ctrls.wrQLenPdf::23                      0                       # What write queue length does an incoming req see
system.mem_ctrls.wrQLenPdf::24                      0                       # What write queue length does an incoming req see
system.mem_ctrls.wrQLenPdf::25                      0                       # What write queue length does an incoming req see
system.mem_ctrls.wrQLenPdf::26                      0                       # What write queue length does an incoming req see
system.mem_ctrls.wrQLenPdf::27                      0                       # What write queue length does an incoming req see
system.mem_ctrls.wrQLenPdf::28                      0                       # What write queue length does an incoming req see
system.mem_ctrls.wrQLenPdf::29                      0                       # What write queue length does an incoming req see
system.mem_ctrls.wrQLenPdf::30                      0                       # What write queue length does an incoming req see
system.mem_ctrls.wrQLenPdf::31                      0                       # What write queue length does an incoming req see
system.mem_ctrls.wrQLenPdf::32                      0                       # What write queue length does an incoming req see
system.mem_ctrls.wrQLenPdf::33                      0                       # What write queue length does an incoming req see
system.mem_ctrls.wrQLenPdf::34                      0                       # What write queue length does an incoming req see
system.mem_ctrls.wrQLenPdf::35                      0                       # What write queue length does an incoming req see
system.mem_ctrls.wrQLenPdf::36                      0                       # What write queue length does an incoming req see
system.mem_ctrls.wrQLenPdf::37                      0                       # What write queue length does an incoming req see
system.mem_ctrls.wrQLenPdf::38                      0                       # What write queue length does an incoming req see
system.mem_ctrls.wrQLenPdf::39                      0                       # What write queue length does an incoming req see
system.mem_ctrls.wrQLenPdf::40                      0                       # What write queue length does an incoming req see
system.mem_ctrls.wrQLenPdf::41                      0                       # What write queue length does an incoming req see
system.mem_ctrls.wrQLenPdf::42                      0                       # What write queue length does an incoming req see
system.mem_ctrls.wrQLenPdf::43                      0                       # What write queue length does an incoming req see
system.mem_ctrls.wrQLenPdf::44                      0                       # What write queue length does an incoming req see
system.mem_ctrls.wrQLenPdf::45                      0                       # What write queue length does an incoming req see
system.mem_ctrls.wrQLenPdf::46                      0                       # What write queue length does an incoming req see
system.mem_ctrls.wrQLenPdf::47                      0                       # What write queue length does an incoming req see
system.mem_ctrls.wrQLenPdf::48                      0                       # What write queue length does an incoming req see
system.mem_ctrls.wrQLenPdf::49                      0                       # What write queue length does an incoming req see
system.mem_ctrls.wrQLenPdf::50                      0                       # What write queue length does an incoming req see
system.mem_ctrls.wrQLenPdf::51                      0                       # What write queue length does an incoming req see
system.mem_ctrls.wrQLenPdf::52                      0                       # What write queue length does an incoming req see
system.mem_ctrls.wrQLenPdf::53                      0                       # What write queue length does an incoming req see
system.mem_ctrls.wrQLenPdf::54                      0                       # What write queue length does an incoming req see
system.mem_ctrls.wrQLenPdf::55                      0                       # What write queue length does an incoming req see
system.mem_ctrls.wrQLenPdf::56                      0                       # What write queue length does an incoming req see
system.mem_ctrls.wrQLenPdf::57                      0                       # What write queue length does an incoming req see
system.mem_ctrls.wrQLenPdf::58                      0                       # What write queue length does an incoming req see
system.mem_ctrls.wrQLenPdf::59                      0                       # What write queue length does an incoming req see
system.mem_ctrls.wrQLenPdf::60                      0                       # What write queue length does an incoming req see
system.mem_ctrls.wrQLenPdf::61                      0                       # What write queue length does an incoming req see
system.mem_ctrls.wrQLenPdf::62                      0                       # What write queue length does an incoming req see
system.mem_ctrls.wrQLenPdf::63                      0                       # What write queue length does an incoming req see
system.mem_ctrls.bytesPerActivate::samples         3458                       # Bytes accessed per row activation
system.mem_ctrls.bytesPerActivate::mean    220.483516                       # Bytes accessed per row activation
system.mem_ctrls.bytesPerActivate::gmean   141.515449                       # Bytes accessed per row activation
system.mem_ctrls.bytesPerActivate::stdev   271.816980                       # Bytes accessed per row activation
system.mem_ctrls.bytesPerActivate::0-127         1106     31.98%     31.98% # Bytes accessed per row activation
system.mem_ctrls.bytesPerActivate::128-255         1662     48.06%     80.05% # Bytes accessed per row activation
system.mem_ctrls.bytesPerActivate::256-383          160      4.63%     84.67% # Bytes accessed per row activation
system.mem_ctrls.bytesPerActivate::384-511           97      2.81%     87.48% # Bytes accessed per row activation
system.mem_ctrls.bytesPerActivate::512-639           56      1.62%     89.10% # Bytes accessed per row activation
system.mem_ctrls.bytesPerActivate::640-767           58      1.68%     90.78% # Bytes accessed per row activation
system.mem_ctrls.bytesPerActivate::768-895           32      0.93%     91.70% # Bytes accessed per row activation
system.mem_ctrls.bytesPerActivate::896-1023           18      0.52%     92.22% # Bytes accessed per row activation
system.mem_ctrls.bytesPerActivate::1024-1151          269      7.78%    100.00% # Bytes accessed per row activation
system.mem_ctrls.bytesPerActivate::total         3458                       # Bytes accessed per row activation
system.mem_ctrls.totQLat                    417449000                       # Total ticks spent queuing
system.mem_ctrls.totMemAccLat               640817750                       # Total ticks spent from burst creation until serviced by the DRAM
system.mem_ctrls.totBusLat                   59565000                       # Total ticks spent in databus transfers
system.mem_ctrls.avgQLat                     35041.47                       # Average queueing delay per DRAM burst
system.mem_ctrls.avgBusLat                    5000.00                       # Average bus latency per DRAM burst
system.mem_ctrls.avgMemAccLat                53791.47                       # Average memory access latency per DRAM burst
system.mem_ctrls.avgRdBW                         0.80                       # Average DRAM read bandwidth in MiByte/s
system.mem_ctrls.avgWrBW                         0.00                       # Average achieved write bandwidth in MiByte/s
system.mem_ctrls.avgRdBWSys                      0.40                       # Average system read bandwidth in MiByte/s
system.mem_ctrls.avgWrBWSys                      0.00                       # Average system write bandwidth in MiByte/s
system.mem_ctrls.peakBW                      12800.00                       # Theoretical peak bandwidth in MiByte/s
system.mem_ctrls.busUtil                         0.01                       # Data bus utilization in percentage
system.mem_ctrls.busUtilRead                     0.01                       # Data bus utilization in percentage for reads
system.mem_ctrls.busUtilWrite                    0.00                       # Data bus utilization in percentage for writes
system.mem_ctrls.avgRdQLen                       1.00                       # Average read queue length when enqueuing
system.mem_ctrls.avgWrQLen                       0.87                       # Average write queue length when enqueuing
system.mem_ctrls.readRowHits                     8455                       # Number of row buffer hits during reads
system.mem_ctrls.writeRowHits                       0                       # Number of row buffer hits during writes
system.mem_ctrls.readRowHitRate                 70.97                       # Row buffer hit rate for reads
system.mem_ctrls.writeRowHitRate                 0.00                       # Row buffer hit rate for writes
system.mem_ctrls.avgGap                   79664730.74                       # Average gap between requests
system.mem_ctrls.pageHitRate                    70.97                       # Row buffer hit rate, read and write combined
system.mem_ctrls_0.actEnergy                 13444620                       # Energy for activate commands per rank (pJ)
system.mem_ctrls_0.preEnergy                  7145985                       # Energy for precharge commands per rank (pJ)
system.mem_ctrls_0.readEnergy                44353680                       # Energy for read commands per rank (pJ)
system.mem_ctrls_0.writeEnergy                      0                       # Energy for write commands per rank (pJ)
system.mem_ctrls_0.refreshEnergy         1189328400.000000                       # Energy for refresh commands per rank (pJ)
system.mem_ctrls_0.actBackEnergy            298128810                       # Energy for active background per rank (pJ)
system.mem_ctrls_0.preBackEnergy             64247040                       # Energy for precharge background per rank (pJ)
system.mem_ctrls_0.actPowerDownEnergy      3161257620                       # Energy for active power-down per rank (pJ)
system.mem_ctrls_0.prePowerDownEnergy      1594312320                       # Energy for precharge power-down per rank (pJ)
system.mem_ctrls_0.selfRefreshEnergy     226493363940                       # Energy for self refresh per rank (pJ)
system.mem_ctrls_0.totalEnergy           232865585775                       # Total energy per rank (pJ)
system.mem_ctrls_0.averagePower            243.934184                       # Core power per rank (mW)
system.mem_ctrls_0.totalIdleTime         951427549500                       # Total Idle time Per DRAM Rank
system.mem_ctrls_0.memoryStateTime::IDLE    121889500                       # Time in different power states
system.mem_ctrls_0.memoryStateTime::REF     505728000                       # Time in different power states
system.mem_ctrls_0.memoryStateTime::SREF 942719100750                       # Time in different power states
system.mem_ctrls_0.memoryStateTime::PRE_PDN   4151934750                       # Time in different power states
system.mem_ctrls_0.memoryStateTime::ACT     193479500                       # Time in different power states
system.mem_ctrls_0.memoryStateTime::ACT_PDN   6932519000                       # Time in different power states
system.mem_ctrls_1.actEnergy                 11245500                       # Energy for activate commands per rank (pJ)
system.mem_ctrls_1.preEnergy                  5977125                       # Energy for precharge commands per rank (pJ)
system.mem_ctrls_1.readEnergy                40705140                       # Energy for read commands per rank (pJ)
system.mem_ctrls_1.writeEnergy                      0                       # Energy for write commands per rank (pJ)
system.mem_ctrls_1.refreshEnergy         416111280.000000                       # Energy for refresh commands per rank (pJ)
system.mem_ctrls_1.actBackEnergy            151912410                       # Energy for active background per rank (pJ)
system.mem_ctrls_1.preBackEnergy             12815520                       # Energy for precharge background per rank (pJ)
system.mem_ctrls_1.actPowerDownEnergy      1666768350                       # Energy for active power-down per rank (pJ)
system.mem_ctrls_1.prePowerDownEnergy       376931040                       # Energy for precharge power-down per rank (pJ)
system.mem_ctrls_1.selfRefreshEnergy     227929557480                       # Energy for self refresh per rank (pJ)
system.mem_ctrls_1.totalEnergy           230612023845                       # Total energy per rank (pJ)
system.mem_ctrls_1.averagePower            241.573506                       # Core power per rank (mW)
system.mem_ctrls_1.totalIdleTime          16279987000                       # Total Idle time Per DRAM Rank
system.mem_ctrls_1.memoryStateTime::IDLE     14578000                       # Time in different power states
system.mem_ctrls_1.memoryStateTime::REF     176254000                       # Time in different power states
system.mem_ctrls_1.memoryStateTime::SREF 949621353500                       # Time in different power states
system.mem_ctrls_1.memoryStateTime::PRE_PDN    981481750                       # Time in different power states
system.mem_ctrls_1.memoryStateTime::ACT     175549500                       # Time in different power states
system.mem_ctrls_1.memoryStateTime::ACT_PDN   3655434750                       # Time in different power states
system.pwrStateResidencyTicks::UNDEFINED 954624651500                       # Cumulative time (in ticks) in various power states
system.cpu_voltage_domain.voltage                   1                       # Voltage in Volts
system.cpu_clk_domain.clock                       500                       # Clock period in ticks
system.cpu.dtb.walker.pwrStateResidencyTicks::UNDEFINED 954624651500                       # Cumulative time (in ticks) in various power states
system.cpu.apic_clk_domain.clock                 8000                       # Clock period in ticks
system.cpu.interrupts.pwrStateResidencyTicks::UNDEFINED 954624651500                       # Cumulative time (in ticks) in various power states
system.cpu.itb.walker.pwrStateResidencyTicks::UNDEFINED 954624651500                       # Cumulative time (in ticks) in various power states
system.cpu.workload.num_syscalls                   34                       # Number of system calls
system.cpu.pwrStateResidencyTicks::ON    954624651500                       # Cumulative time (in ticks) in various power states
system.cpu.numCycles                       1909249303                       # number of cpu cycles simulated
system.cpu.numWorkItemsStarted                      0                       # number of work items this cpu started
system.cpu.numWorkItemsCompleted                    0                       # number of work items this cpu completed
system.cpu.committedInsts                   500000000                       # Number of instructions committed
system.cpu.committedOps                     644780824                       # Number of ops (including micro ops) committed
system.cpu.num_int_alu_accesses             625781845                       # Number of integer alu accesses
system.cpu.num_fp_alu_accesses               27680885                       # Number of float alu accesses
system.cpu.num_func_calls                     1532449                       # number of times a function call or return occured
system.cpu.num_conditional_control_insts     25288260                       # number of instructions that are conditional controls
system.cpu.num_int_insts                    625781845                       # number of integer instructions
system.cpu.num_fp_insts                      27680885                       # number of float instructions
system.cpu.num_int_register_reads          1467255983                       # number of times the integer registers were read
system.cpu.num_int_register_writes          569426959                       # number of times the integer registers were written
system.cpu.num_fp_register_reads             21886167                       # number of times the floating registers were read
system.cpu.num_fp_register_writes            23676651                       # number of times the floating registers were written
system.cpu.num_cc_register_reads            187287140                       # number of times the CC registers were read
system.cpu.num_cc_register_writes           260710310                       # number of times the CC registers were written
system.cpu.num_mem_refs                     254811579                       # number of memory refs
system.cpu.num_load_insts                   219158147                       # Number of load instructions
system.cpu.num_store_insts                   35653432                       # Number of store instructions
system.cpu.num_idle_cycles                          0                       # Number of idle cycles
system.cpu.num_busy_cycles                 1909249303                       # Number of busy cycles
system.cpu.not_idle_fraction                        1                       # Percentage of non-idle cycles
system.cpu.idle_fraction                            0                       # Percentage of idle cycles
system.cpu.Branches                          27593151                       # Number of branches fetched
system.cpu.op_class::No_OpClass               1477149      0.23%      0.23% # Class of executed instruction
system.cpu.op_class::IntAlu                 363712896     56.41%     56.64% # Class of executed instruction
system.cpu.op_class::IntMult                   612864      0.10%     56.73% # Class of executed instruction
system.cpu.op_class::IntDiv                   6327906      0.98%     57.71% # Class of executed instruction
system.cpu.op_class::FloatAdd                17838430      2.77%     60.48% # Class of executed instruction
system.cpu.op_class::FloatCmp                       0      0.00%     60.48% # Class of executed instruction
system.cpu.op_class::FloatCvt                       0      0.00%     60.48% # Class of executed instruction
system.cpu.op_class::FloatMult                      0      0.00%     60.48% # Class of executed instruction
system.cpu.op_class::FloatDiv                       0      0.00%     60.48% # Class of executed instruction
system.cpu.op_class::FloatSqrt                      0      0.00%     60.48% # Class of executed instruction
system.cpu.op_class::SimdAdd                        0      0.00%     60.48% # Class of executed instruction
system.cpu.op_class::SimdAddAcc                     0      0.00%     60.48% # Class of executed instruction
system.cpu.op_class::SimdAlu                        0      0.00%     60.48% # Class of executed instruction
system.cpu.op_class::SimdCmp                        0      0.00%     60.48% # Class of executed instruction
system.cpu.op_class::SimdCvt                        0      0.00%     60.48% # Class of executed instruction
system.cpu.op_class::SimdMisc                       0      0.00%     60.48% # Class of executed instruction
system.cpu.op_class::SimdMult                       0      0.00%     60.48% # Class of executed instruction
system.cpu.op_class::SimdMultAcc                    0      0.00%     60.48% # Class of executed instruction
system.cpu.op_class::SimdShift                      0      0.00%     60.48% # Class of executed instruction
system.cpu.op_class::SimdShiftAcc                   0      0.00%     60.48% # Class of executed instruction
system.cpu.op_class::SimdSqrt                       0      0.00%     60.48% # Class of executed instruction
system.cpu.op_class::SimdFloatAdd                   0      0.00%     60.48% # Class of executed instruction
system.cpu.op_class::SimdFloatAlu                   0      0.00%     60.48% # Class of executed instruction
system.cpu.op_class::SimdFloatCmp                   0      0.00%     60.48% # Class of executed instruction
system.cpu.op_class::SimdFloatCvt                   0      0.00%     60.48% # Class of executed instruction
system.cpu.op_class::SimdFloatDiv                   0      0.00%     60.48% # Class of executed instruction
system.cpu.op_class::SimdFloatMisc                  0      0.00%     60.48% # Class of executed instruction
system.cpu.op_class::SimdFloatMult                  0      0.00%     60.48% # Class of executed instruction
system.cpu.op_class::SimdFloatMultAcc               0      0.00%     60.48% # Class of executed instruction
system.cpu.op_class::SimdFloatSqrt                  0      0.00%     60.48% # Class of executed instruction
system.cpu.op_class::MemRead                219158147     33.99%     94.47% # Class of executed instruction
system.cpu.op_class::MemWrite                35653432      5.53%    100.00% # Class of executed instruction
system.cpu.op_class::IprAccess                      0      0.00%    100.00% # Class of executed instruction
system.cpu.op_class::InstPrefetch                   0      0.00%    100.00% # Class of executed instruction
system.cpu.op_class::total                  644780824                       # Class of executed instruction
system.cpu.dcache.tags.pwrStateResidencyTicks::UNDEFINED 954624651500                       # Cumulative time (in ticks) in various power states
system.cpu.dcache.tags.replacements            217125                       # number of replacements
system.cpu.dcache.tags.tagsinuse          4086.541817                       # Cycle average of tags in use
system.cpu.dcache.tags.total_refs           254592000                       # Total number of references to valid blocks.
system.cpu.dcache.tags.sampled_refs            221221                       # Sample count of references to valid blocks.
system.cpu.dcache.tags.avg_refs           1150.849151                       # Average number of references to valid blocks.
system.cpu.dcache.tags.warmup_cycle        7412688500                       # Cycle when the warmup percentage was hit.
system.cpu.dcache.tags.occ_blocks::cpu.data  4086.541817                       # Average occupied blocks per requestor
system.cpu.dcache.tags.occ_percent::cpu.data     0.997691                       # Average percentage of cache occupancy
system.cpu.dcache.tags.occ_percent::total     0.997691                       # Average percentage of cache occupancy
system.cpu.dcache.tags.occ_task_id_blocks::1024         4096                       # Occupied blocks per task id
system.cpu.dcache.tags.age_task_id_blocks_1024::0            1                       # Occupied blocks per task id
system.cpu.dcache.tags.age_task_id_blocks_1024::1            6                       # Occupied blocks per task id
system.cpu.dcache.tags.age_task_id_blocks_1024::2          137                       # Occupied blocks per task id
system.cpu.dcache.tags.age_task_id_blocks_1024::3          539                       # Occupied blocks per task id
system.cpu.dcache.tags.age_task_id_blocks_1024::4         3413                       # Occupied blocks per task id
system.cpu.dcache.tags.occ_task_id_percent::1024            1                       # Percentage of cache occupancy per task id
system.cpu.dcache.tags.tag_accesses         509847663                       # Number of tag accesses
system.cpu.dcache.tags.data_accesses        509847663                       # Number of data accesses
system.cpu.dcache.pwrStateResidencyTicks::UNDEFINED 954624651500                       # Cumulative time (in ticks) in various power states
system.cpu.dcache.ReadReq_hits::cpu.data    219111043                       # number of ReadReq hits
system.cpu.dcache.ReadReq_hits::total       219111043                       # number of ReadReq hits
system.cpu.dcache.WriteReq_hits::cpu.data     35480386                       # number of WriteReq hits
system.cpu.dcache.WriteReq_hits::total       35480386                       # number of WriteReq hits
system.cpu.dcache.SoftPFReq_hits::cpu.data          571                       # number of SoftPFReq hits
system.cpu.dcache.SoftPFReq_hits::total           571                       # number of SoftPFReq hits
system.cpu.dcache.demand_hits::cpu.data     254591429                       # number of demand (read+write) hits
system.cpu.dcache.demand_hits::total        254591429                       # number of demand (read+write) hits
system.cpu.dcache.overall_hits::cpu.data    254592000                       # number of overall hits
system.cpu.dcache.overall_hits::total       254592000                       # number of overall hits
system.cpu.dcache.ReadReq_misses::cpu.data        46427                       # number of ReadReq misses
system.cpu.dcache.ReadReq_misses::total         46427                       # number of ReadReq misses
system.cpu.dcache.WriteReq_misses::cpu.data       173141                       # number of WriteReq misses
system.cpu.dcache.WriteReq_misses::total       173141                       # number of WriteReq misses
system.cpu.dcache.SoftPFReq_misses::cpu.data         1653                       # number of SoftPFReq misses
system.cpu.dcache.SoftPFReq_misses::total         1653                       # number of SoftPFReq misses
system.cpu.dcache.demand_misses::cpu.data       219568                       # number of demand (read+write) misses
system.cpu.dcache.demand_misses::total         219568                       # number of demand (read+write) misses
system.cpu.dcache.overall_misses::cpu.data       221221                       # number of overall misses
system.cpu.dcache.overall_misses::total        221221                       # number of overall misses
system.cpu.dcache.ReadReq_miss_latency::cpu.data    838603500                       # number of ReadReq miss cycles
system.cpu.dcache.ReadReq_miss_latency::total    838603500                       # number of ReadReq miss cycles
system.cpu.dcache.WriteReq_miss_latency::cpu.data   2808830500                       # number of WriteReq miss cycles
system.cpu.dcache.WriteReq_miss_latency::total   2808830500                       # number of WriteReq miss cycles
system.cpu.dcache.demand_miss_latency::cpu.data   3647434000                       # number of demand (read+write) miss cycles
system.cpu.dcache.demand_miss_latency::total   3647434000                       # number of demand (read+write) miss cycles
system.cpu.dcache.overall_miss_latency::cpu.data   3647434000                       # number of overall miss cycles
system.cpu.dcache.overall_miss_latency::total   3647434000                       # number of overall miss cycles
system.cpu.dcache.ReadReq_accesses::cpu.data    219157470                       # number of ReadReq accesses(hits+misses)
system.cpu.dcache.ReadReq_accesses::total    219157470                       # number of ReadReq accesses(hits+misses)
system.cpu.dcache.WriteReq_accesses::cpu.data     35653527                       # number of WriteReq accesses(hits+misses)
system.cpu.dcache.WriteReq_accesses::total     35653527                       # number of WriteReq accesses(hits+misses)
system.cpu.dcache.SoftPFReq_accesses::cpu.data         2224                       # number of SoftPFReq accesses(hits+misses)
system.cpu.dcache.SoftPFReq_accesses::total         2224                       # number of SoftPFReq accesses(hits+misses)
system.cpu.dcache.demand_accesses::cpu.data    254810997                       # number of demand (read+write) accesses
system.cpu.dcache.demand_accesses::total    254810997                       # number of demand (read+write) accesses
system.cpu.dcache.overall_accesses::cpu.data    254813221                       # number of overall (read+write) accesses
system.cpu.dcache.overall_accesses::total    254813221                       # number of overall (read+write) accesses
system.cpu.dcache.ReadReq_miss_rate::cpu.data     0.000212                       # miss rate for ReadReq accesses
system.cpu.dcache.ReadReq_miss_rate::total     0.000212                       # miss rate for ReadReq accesses
system.cpu.dcache.WriteReq_miss_rate::cpu.data     0.004856                       # miss rate for WriteReq accesses
system.cpu.dcache.WriteReq_miss_rate::total     0.004856                       # miss rate for WriteReq accesses
system.cpu.dcache.SoftPFReq_miss_rate::cpu.data     0.743255                       # miss rate for SoftPFReq accesses
system.cpu.dcache.SoftPFReq_miss_rate::total     0.743255                       # miss rate for SoftPFReq accesses
system.cpu.dcache.demand_miss_rate::cpu.data     0.000862                       # miss rate for demand accesses
system.cpu.dcache.demand_miss_rate::total     0.000862                       # miss rate for demand accesses
system.cpu.dcache.overall_miss_rate::cpu.data     0.000868                       # miss rate for overall accesses
system.cpu.dcache.overall_miss_rate::total     0.000868                       # miss rate for overall accesses
system.cpu.dcache.ReadReq_avg_miss_latency::cpu.data 18062.840588                       # average ReadReq miss latency
system.cpu.dcache.ReadReq_avg_miss_latency::total 18062.840588                       # average ReadReq miss latency
system.cpu.dcache.WriteReq_avg_miss_latency::cpu.data 16222.792406                       # average WriteReq miss latency
system.cpu.dcache.WriteReq_avg_miss_latency::total 16222.792406                       # average WriteReq miss latency
system.cpu.dcache.demand_avg_miss_latency::cpu.data 16611.865117                       # average overall miss latency
system.cpu.dcache.demand_avg_miss_latency::total 16611.865117                       # average overall miss latency
system.cpu.dcache.overall_avg_miss_latency::cpu.data 16487.738506                       # average overall miss latency
system.cpu.dcache.overall_avg_miss_latency::total 16487.738506                       # average overall miss latency
system.cpu.dcache.blocked_cycles::no_mshrs         1203                       # number of cycles access was blocked
system.cpu.dcache.blocked_cycles::no_targets            0                       # number of cycles access was blocked
system.cpu.dcache.blocked::no_mshrs                 6                       # number of cycles access was blocked
system.cpu.dcache.blocked::no_targets               0                       # number of cycles access was blocked
system.cpu.dcache.avg_blocked_cycles::no_mshrs   200.500000                       # average number of cycles each access was blocked
system.cpu.dcache.avg_blocked_cycles::no_targets          nan                       # average number of cycles each access was blocked
system.cpu.dcache.writebacks::writebacks       212745                       # number of writebacks
system.cpu.dcache.writebacks::total            212745                       # number of writebacks
system.cpu.dcache.ReadReq_mshr_misses::cpu.data        46427                       # number of ReadReq MSHR misses
system.cpu.dcache.ReadReq_mshr_misses::total        46427                       # number of ReadReq MSHR misses
system.cpu.dcache.WriteReq_mshr_misses::cpu.data       173141                       # number of WriteReq MSHR misses
system.cpu.dcache.WriteReq_mshr_misses::total       173141                       # number of WriteReq MSHR misses
system.cpu.dcache.SoftPFReq_mshr_misses::cpu.data         1653                       # number of SoftPFReq MSHR misses
system.cpu.dcache.SoftPFReq_mshr_misses::total         1653                       # number of SoftPFReq MSHR misses
system.cpu.dcache.demand_mshr_misses::cpu.data       219568                       # number of demand (read+write) MSHR misses
system.cpu.dcache.demand_mshr_misses::total       219568                       # number of demand (read+write) MSHR misses
system.cpu.dcache.overall_mshr_misses::cpu.data       221221                       # number of overall MSHR misses
system.cpu.dcache.overall_mshr_misses::total       221221                       # number of overall MSHR misses
system.cpu.dcache.ReadReq_mshr_miss_latency::cpu.data    792176500                       # number of ReadReq MSHR miss cycles
system.cpu.dcache.ReadReq_mshr_miss_latency::total    792176500                       # number of ReadReq MSHR miss cycles
system.cpu.dcache.WriteReq_mshr_miss_latency::cpu.data   2635689500                       # number of WriteReq MSHR miss cycles
system.cpu.dcache.WriteReq_mshr_miss_latency::total   2635689500                       # number of WriteReq MSHR miss cycles
system.cpu.dcache.SoftPFReq_mshr_miss_latency::cpu.data     58696000                       # number of SoftPFReq MSHR miss cycles
system.cpu.dcache.SoftPFReq_mshr_miss_latency::total     58696000                       # number of SoftPFReq MSHR miss cycles
system.cpu.dcache.demand_mshr_miss_latency::cpu.data   3427866000                       # number of demand (read+write) MSHR miss cycles
system.cpu.dcache.demand_mshr_miss_latency::total   3427866000                       # number of demand (read+write) MSHR miss cycles
system.cpu.dcache.overall_mshr_miss_latency::cpu.data   3486562000                       # number of overall MSHR miss cycles
system.cpu.dcache.overall_mshr_miss_latency::total   3486562000                       # number of overall MSHR miss cycles
system.cpu.dcache.ReadReq_mshr_miss_rate::cpu.data     0.000212                       # mshr miss rate for ReadReq accesses
system.cpu.dcache.ReadReq_mshr_miss_rate::total     0.000212                       # mshr miss rate for ReadReq accesses
system.cpu.dcache.WriteReq_mshr_miss_rate::cpu.data     0.004856                       # mshr miss rate for WriteReq accesses
system.cpu.dcache.WriteReq_mshr_miss_rate::total     0.004856                       # mshr miss rate for WriteReq accesses
system.cpu.dcache.SoftPFReq_mshr_miss_rate::cpu.data     0.743255                       # mshr miss rate for SoftPFReq accesses
system.cpu.dcache.SoftPFReq_mshr_miss_rate::total     0.743255                       # mshr miss rate for SoftPFReq accesses
system.cpu.dcache.demand_mshr_miss_rate::cpu.data     0.000862                       # mshr miss rate for demand accesses
system.cpu.dcache.demand_mshr_miss_rate::total     0.000862                       # mshr miss rate for demand accesses
system.cpu.dcache.overall_mshr_miss_rate::cpu.data     0.000868                       # mshr miss rate for overall accesses
system.cpu.dcache.overall_mshr_miss_rate::total     0.000868                       # mshr miss rate for overall accesses
system.cpu.dcache.ReadReq_avg_mshr_miss_latency::cpu.data 17062.840588                       # average ReadReq mshr miss latency
system.cpu.dcache.ReadReq_avg_mshr_miss_latency::total 17062.840588                       # average ReadReq mshr miss latency
system.cpu.dcache.WriteReq_avg_mshr_miss_latency::cpu.data 15222.792406                       # average WriteReq mshr miss latency
system.cpu.dcache.WriteReq_avg_mshr_miss_latency::total 15222.792406                       # average WriteReq mshr miss latency
system.cpu.dcache.SoftPFReq_avg_mshr_miss_latency::cpu.data 35508.771930                       # average SoftPFReq mshr miss latency
system.cpu.dcache.SoftPFReq_avg_mshr_miss_latency::total 35508.771930                       # average SoftPFReq mshr miss latency
system.cpu.dcache.demand_avg_mshr_miss_latency::cpu.data 15611.865117                       # average overall mshr miss latency
system.cpu.dcache.demand_avg_mshr_miss_latency::total 15611.865117                       # average overall mshr miss latency
system.cpu.dcache.overall_avg_mshr_miss_latency::cpu.data 15760.538104                       # average overall mshr miss latency
system.cpu.dcache.overall_avg_mshr_miss_latency::total 15760.538104                       # average overall mshr miss latency
system.cpu.dtb_walker_cache.tags.pwrStateResidencyTicks::UNDEFINED 954624651500                       # Cumulative time (in ticks) in various power states
system.cpu.dtb_walker_cache.tags.replacements            0                       # number of replacements
system.cpu.dtb_walker_cache.tags.tagsinuse            0                       # Cycle average of tags in use
system.cpu.dtb_walker_cache.tags.total_refs            0                       # Total number of references to valid blocks.
system.cpu.dtb_walker_cache.tags.sampled_refs            0                       # Sample count of references to valid blocks.
system.cpu.dtb_walker_cache.tags.avg_refs          nan                       # Average number of references to valid blocks.
system.cpu.dtb_walker_cache.tags.warmup_cycle            0                       # Cycle when the warmup percentage was hit.
system.cpu.dtb_walker_cache.tags.tag_accesses            0                       # Number of tag accesses
system.cpu.dtb_walker_cache.tags.data_accesses            0                       # Number of data accesses
system.cpu.dtb_walker_cache.pwrStateResidencyTicks::UNDEFINED 954624651500                       # Cumulative time (in ticks) in various power states
system.cpu.dtb_walker_cache.blocked_cycles::no_mshrs            0                       # number of cycles access was blocked
system.cpu.dtb_walker_cache.blocked_cycles::no_targets            0                       # number of cycles access was blocked
system.cpu.dtb_walker_cache.blocked::no_mshrs            0                       # number of cycles access was blocked
system.cpu.dtb_walker_cache.blocked::no_targets            0                       # number of cycles access was blocked
system.cpu.dtb_walker_cache.avg_blocked_cycles::no_mshrs          nan                       # average number of cycles each access was blocked
system.cpu.dtb_walker_cache.avg_blocked_cycles::no_targets          nan                       # average number of cycles each access was blocked
system.cpu.icache.tags.pwrStateResidencyTicks::UNDEFINED 954624651500                       # Cumulative time (in ticks) in various power states
system.cpu.icache.tags.replacements              7365                       # number of replacements
system.cpu.icache.tags.tagsinuse          1013.803866                       # Cycle average of tags in use
system.cpu.icache.tags.total_refs           695984851                       # Total number of references to valid blocks.
system.cpu.icache.tags.sampled_refs              8379                       # Sample count of references to valid blocks.
system.cpu.icache.tags.avg_refs          83062.996897                       # Average number of references to valid blocks.
system.cpu.icache.tags.warmup_cycle                 0                       # Cycle when the warmup percentage was hit.
system.cpu.icache.tags.occ_blocks::cpu.inst  1013.803866                       # Average occupied blocks per requestor
system.cpu.icache.tags.occ_percent::cpu.inst     0.990043                       # Average percentage of cache occupancy
system.cpu.icache.tags.occ_percent::total     0.990043                       # Average percentage of cache occupancy
system.cpu.icache.tags.occ_task_id_blocks::1024         1014                       # Occupied blocks per task id
system.cpu.icache.tags.age_task_id_blocks_1024::3           12                       # Occupied blocks per task id
system.cpu.icache.tags.age_task_id_blocks_1024::4         1002                       # Occupied blocks per task id
system.cpu.icache.tags.occ_task_id_percent::1024     0.990234                       # Percentage of cache occupancy per task id
system.cpu.icache.tags.tag_accesses        1391994839                       # Number of tag accesses
system.cpu.icache.tags.data_accesses       1391994839                       # Number of data accesses
system.cpu.icache.pwrStateResidencyTicks::UNDEFINED 954624651500                       # Cumulative time (in ticks) in various power states
system.cpu.icache.ReadReq_hits::cpu.inst    695984851                       # number of ReadReq hits
system.cpu.icache.ReadReq_hits::total       695984851                       # number of ReadReq hits
system.cpu.icache.demand_hits::cpu.inst     695984851                       # number of demand (read+write) hits
system.cpu.icache.demand_hits::total        695984851                       # number of demand (read+write) hits
system.cpu.icache.overall_hits::cpu.inst    695984851                       # number of overall hits
system.cpu.icache.overall_hits::total       695984851                       # number of overall hits
system.cpu.icache.ReadReq_misses::cpu.inst         8379                       # number of ReadReq misses
system.cpu.icache.ReadReq_misses::total          8379                       # number of ReadReq misses
system.cpu.icache.demand_misses::cpu.inst         8379                       # number of demand (read+write) misses
system.cpu.icache.demand_misses::total           8379                       # number of demand (read+write) misses
system.cpu.icache.overall_misses::cpu.inst         8379                       # number of overall misses
system.cpu.icache.overall_misses::total          8379                       # number of overall misses
system.cpu.icache.ReadReq_miss_latency::cpu.inst    398958000                       # number of ReadReq miss cycles
system.cpu.icache.ReadReq_miss_latency::total    398958000                       # number of ReadReq miss cycles
system.cpu.icache.demand_miss_latency::cpu.inst    398958000                       # number of demand (read+write) miss cycles
system.cpu.icache.demand_miss_latency::total    398958000                       # number of demand (read+write) miss cycles
system.cpu.icache.overall_miss_latency::cpu.inst    398958000                       # number of overall miss cycles
system.cpu.icache.overall_miss_latency::total    398958000                       # number of overall miss cycles
system.cpu.icache.ReadReq_accesses::cpu.inst    695993230                       # number of ReadReq accesses(hits+misses)
system.cpu.icache.ReadReq_accesses::total    695993230                       # number of ReadReq accesses(hits+misses)
system.cpu.icache.demand_accesses::cpu.inst    695993230                       # number of demand (read+write) accesses
system.cpu.icache.demand_accesses::total    695993230                       # number of demand (read+write) accesses
system.cpu.icache.overall_accesses::cpu.inst    695993230                       # number of overall (read+write) accesses
system.cpu.icache.overall_accesses::total    695993230                       # number of overall (read+write) accesses
system.cpu.icache.ReadReq_miss_rate::cpu.inst     0.000012                       # miss rate for ReadReq accesses
system.cpu.icache.ReadReq_miss_rate::total     0.000012                       # miss rate for ReadReq accesses
system.cpu.icache.demand_miss_rate::cpu.inst     0.000012                       # miss rate for demand accesses
system.cpu.icache.demand_miss_rate::total     0.000012                       # miss rate for demand accesses
system.cpu.icache.overall_miss_rate::cpu.inst     0.000012                       # miss rate for overall accesses
system.cpu.icache.overall_miss_rate::total     0.000012                       # miss rate for overall accesses
system.cpu.icache.ReadReq_avg_miss_latency::cpu.inst 47614.035088                       # average ReadReq miss latency
system.cpu.icache.ReadReq_avg_miss_latency::total 47614.035088                       # average ReadReq miss latency
system.cpu.icache.demand_avg_miss_latency::cpu.inst 47614.035088                       # average overall miss latency
system.cpu.icache.demand_avg_miss_latency::total 47614.035088                       # average overall miss latency
system.cpu.icache.overall_avg_miss_latency::cpu.inst 47614.035088                       # average overall miss latency
system.cpu.icache.overall_avg_miss_latency::total 47614.035088                       # average overall miss latency
system.cpu.icache.blocked_cycles::no_mshrs            0                       # number of cycles access was blocked
system.cpu.icache.blocked_cycles::no_targets            0                       # number of cycles access was blocked
system.cpu.icache.blocked::no_mshrs                 0                       # number of cycles access was blocked
system.cpu.icache.blocked::no_targets               0                       # number of cycles access was blocked
system.cpu.icache.avg_blocked_cycles::no_mshrs          nan                       # average number of cycles each access was blocked
system.cpu.icache.avg_blocked_cycles::no_targets          nan                       # average number of cycles each access was blocked
system.cpu.icache.writebacks::writebacks         7365                       # number of writebacks
system.cpu.icache.writebacks::total              7365                       # number of writebacks
system.cpu.icache.ReadReq_mshr_misses::cpu.inst         8379                       # number of ReadReq MSHR misses
system.cpu.icache.ReadReq_mshr_misses::total         8379                       # number of ReadReq MSHR misses
system.cpu.icache.demand_mshr_misses::cpu.inst         8379                       # number of demand (read+write) MSHR misses
system.cpu.icache.demand_mshr_misses::total         8379                       # number of demand (read+write) MSHR misses
system.cpu.icache.overall_mshr_misses::cpu.inst         8379                       # number of overall MSHR misses
system.cpu.icache.overall_mshr_misses::total         8379                       # number of overall MSHR misses
system.cpu.icache.ReadReq_mshr_miss_latency::cpu.inst    390579000                       # number of ReadReq MSHR miss cycles
system.cpu.icache.ReadReq_mshr_miss_latency::total    390579000                       # number of ReadReq MSHR miss cycles
system.cpu.icache.demand_mshr_miss_latency::cpu.inst    390579000                       # number of demand (read+write) MSHR miss cycles
system.cpu.icache.demand_mshr_miss_latency::total    390579000                       # number of demand (read+write) MSHR miss cycles
system.cpu.icache.overall_mshr_miss_latency::cpu.inst    390579000                       # number of overall MSHR miss cycles
system.cpu.icache.overall_mshr_miss_latency::total    390579000                       # number of overall MSHR miss cycles
system.cpu.icache.ReadReq_mshr_miss_rate::cpu.inst     0.000012                       # mshr miss rate for ReadReq accesses
system.cpu.icache.ReadReq_mshr_miss_rate::total     0.000012                       # mshr miss rate for ReadReq accesses
system.cpu.icache.demand_mshr_miss_rate::cpu.inst     0.000012                       # mshr miss rate for demand accesses
system.cpu.icache.demand_mshr_miss_rate::total     0.000012                       # mshr miss rate for demand accesses
system.cpu.icache.overall_mshr_miss_rate::cpu.inst     0.000012                       # mshr miss rate for overall accesses
system.cpu.icache.overall_mshr_miss_rate::total     0.000012                       # mshr miss rate for overall accesses
system.cpu.icache.ReadReq_avg_mshr_miss_latency::cpu.inst 46614.035088                       # average ReadReq mshr miss latency
system.cpu.icache.ReadReq_avg_mshr_miss_latency::total 46614.035088                       # average ReadReq mshr miss latency
system.cpu.icache.demand_avg_mshr_miss_latency::cpu.inst 46614.035088                       # average overall mshr miss latency
system.cpu.icache.demand_avg_mshr_miss_latency::total 46614.035088                       # average overall mshr miss latency
system.cpu.icache.overall_avg_mshr_miss_latency::cpu.inst 46614.035088                       # average overall mshr miss latency
system.cpu.icache.overall_avg_mshr_miss_latency::total 46614.035088                       # average overall mshr miss latency
system.cpu.itb_walker_cache.tags.pwrStateResidencyTicks::UNDEFINED 954624651500                       # Cumulative time (in ticks) in various power states
system.cpu.itb_walker_cache.tags.replacements            0                       # number of replacements
system.cpu.itb_walker_cache.tags.tagsinuse            0                       # Cycle average of tags in use
system.cpu.itb_walker_cache.tags.total_refs            0                       # Total number of references to valid blocks.
system.cpu.itb_walker_cache.tags.sampled_refs            0                       # Sample count of references to valid blocks.
system.cpu.itb_walker_cache.tags.avg_refs          nan                       # Average number of references to valid blocks.
system.cpu.itb_walker_cache.tags.warmup_cycle            0                       # Cycle when the warmup percentage was hit.
system.cpu.itb_walker_cache.tags.tag_accesses            0                       # Number of tag accesses
system.cpu.itb_walker_cache.tags.data_accesses            0                       # Number of data accesses
system.cpu.itb_walker_cache.pwrStateResidencyTicks::UNDEFINED 954624651500                       # Cumulative time (in ticks) in various power states
system.cpu.itb_walker_cache.blocked_cycles::no_mshrs            0                       # number of cycles access was blocked
system.cpu.itb_walker_cache.blocked_cycles::no_targets            0                       # number of cycles access was blocked
system.cpu.itb_walker_cache.blocked::no_mshrs            0                       # number of cycles access was blocked
system.cpu.itb_walker_cache.blocked::no_targets            0                       # number of cycles access was blocked
system.cpu.itb_walker_cache.avg_blocked_cycles::no_mshrs          nan                       # average number of cycles each access was blocked
system.cpu.itb_walker_cache.avg_blocked_cycles::no_targets          nan                       # average number of cycles each access was blocked
system.l2.tags.pwrStateResidencyTicks::UNDEFINED 954624651500                       # Cumulative time (in ticks) in various power states
system.l2.tags.replacements                      1148                       # number of replacements
system.l2.tags.tagsinuse                 11147.146985                       # Cycle average of tags in use
system.l2.tags.total_refs                      441574                       # Total number of references to valid blocks.
system.l2.tags.sampled_refs                     12376                       # Sample count of references to valid blocks.
system.l2.tags.avg_refs                     35.679864                       # Average number of references to valid blocks.
system.l2.tags.warmup_cycle                         0                       # Cycle when the warmup percentage was hit.
system.l2.tags.occ_blocks::writebacks       31.194199                       # Average occupied blocks per requestor
system.l2.tags.occ_blocks::cpu.inst       2173.140906                       # Average occupied blocks per requestor
system.l2.tags.occ_blocks::cpu.data       8942.811879                       # Average occupied blocks per requestor
system.l2.tags.occ_percent::writebacks       0.000952                       # Average percentage of cache occupancy
system.l2.tags.occ_percent::cpu.inst         0.066319                       # Average percentage of cache occupancy
system.l2.tags.occ_percent::cpu.data         0.272913                       # Average percentage of cache occupancy
system.l2.tags.occ_percent::total            0.340184                       # Average percentage of cache occupancy
system.l2.tags.occ_task_id_blocks::1024         11228                       # Occupied blocks per task id
system.l2.tags.age_task_id_blocks_1024::2            1                       # Occupied blocks per task id
system.l2.tags.age_task_id_blocks_1024::3            1                       # Occupied blocks per task id
system.l2.tags.age_task_id_blocks_1024::4        11226                       # Occupied blocks per task id
system.l2.tags.occ_task_id_percent::1024     0.342651                       # Percentage of cache occupancy per task id
system.l2.tags.tag_accesses                    920556                       # Number of tag accesses
system.l2.tags.data_accesses                   920556                       # Number of data accesses
system.l2.pwrStateResidencyTicks::UNDEFINED 954624651500                       # Cumulative time (in ticks) in various power states
system.l2.WritebackDirty_hits::writebacks       212745                       # number of WritebackDirty hits
system.l2.WritebackDirty_hits::total           212745                       # number of WritebackDirty hits
system.l2.WritebackClean_hits::writebacks         7365                       # number of WritebackClean hits
system.l2.WritebackClean_hits::total             7365                       # number of WritebackClean hits
system.l2.ReadExReq_hits::cpu.data             165697                       # number of ReadExReq hits
system.l2.ReadExReq_hits::total                165697                       # number of ReadExReq hits
system.l2.ReadCleanReq_hits::cpu.inst            5834                       # number of ReadCleanReq hits
system.l2.ReadCleanReq_hits::total               5834                       # number of ReadCleanReq hits
system.l2.ReadSharedReq_hits::cpu.data          46136                       # number of ReadSharedReq hits
system.l2.ReadSharedReq_hits::total             46136                       # number of ReadSharedReq hits
system.l2.demand_hits::cpu.inst                  5834                       # number of demand (read+write) hits
system.l2.demand_hits::cpu.data                211833                       # number of demand (read+write) hits
system.l2.demand_hits::total                   217667                       # number of demand (read+write) hits
system.l2.overall_hits::cpu.inst                 5834                       # number of overall hits
system.l2.overall_hits::cpu.data               211833                       # number of overall hits
system.l2.overall_hits::total                  217667                       # number of overall hits
system.l2.ReadExReq_misses::cpu.data             7444                       # number of ReadExReq misses
system.l2.ReadExReq_misses::total                7444                       # number of ReadExReq misses
system.l2.ReadCleanReq_misses::cpu.inst          2545                       # number of ReadCleanReq misses
system.l2.ReadCleanReq_misses::total             2545                       # number of ReadCleanReq misses
system.l2.ReadSharedReq_misses::cpu.data         1944                       # number of ReadSharedReq misses
system.l2.ReadSharedReq_misses::total            1944                       # number of ReadSharedReq misses
system.l2.demand_misses::cpu.inst                2545                       # number of demand (read+write) misses
system.l2.demand_misses::cpu.data                9388                       # number of demand (read+write) misses
system.l2.demand_misses::total                  11933                       # number of demand (read+write) misses
system.l2.overall_misses::cpu.inst               2545                       # number of overall misses
system.l2.overall_misses::cpu.data               9388                       # number of overall misses
system.l2.overall_misses::total                 11933                       # number of overall misses
system.l2.ReadExReq_miss_latency::cpu.data    636159500                       # number of ReadExReq miss cycles
system.l2.ReadExReq_miss_latency::total     636159500                       # number of ReadExReq miss cycles
system.l2.ReadCleanReq_miss_latency::cpu.inst    316753500                       # number of ReadCleanReq miss cycles
system.l2.ReadCleanReq_miss_latency::total    316753500                       # number of ReadCleanReq miss cycles
system.l2.ReadSharedReq_miss_latency::cpu.data    294322500                       # number of ReadSharedReq miss cycles
system.l2.ReadSharedReq_miss_latency::total    294322500                       # number of ReadSharedReq miss cycles
system.l2.demand_miss_latency::cpu.inst     316753500                       # number of demand (read+write) miss cycles
system.l2.demand_miss_latency::cpu.data     930482000                       # number of demand (read+write) miss cycles
system.l2.demand_miss_latency::total       1247235500                       # number of demand (read+write) miss cycles
system.l2.overall_miss_latency::cpu.inst    316753500                       # number of overall miss cycles
system.l2.overall_miss_latency::cpu.data    930482000                       # number of overall miss cycles
system.l2.overall_miss_latency::total      1247235500                       # number of overall miss cycles
system.l2.WritebackDirty_accesses::writebacks       212745                       # number of WritebackDirty accesses(hits+misses)
system.l2.WritebackDirty_accesses::total       212745                       # number of WritebackDirty accesses(hits+misses)
system.l2.WritebackClean_accesses::writebacks         7365                       # number of WritebackClean accesses(hits+misses)
system.l2.WritebackClean_accesses::total         7365                       # number of WritebackClean accesses(hits+misses)
system.l2.ReadExReq_accesses::cpu.data         173141                       # number of ReadExReq accesses(hits+misses)
system.l2.ReadExReq_accesses::total            173141                       # number of ReadExReq accesses(hits+misses)
system.l2.ReadCleanReq_accesses::cpu.inst         8379                       # number of ReadCleanReq accesses(hits+misses)
system.l2.ReadCleanReq_accesses::total           8379                       # number of ReadCleanReq accesses(hits+misses)
system.l2.ReadSharedReq_accesses::cpu.data        48080                       # number of ReadSharedReq accesses(hits+misses)
system.l2.ReadSharedReq_accesses::total         48080                       # number of ReadSharedReq accesses(hits+misses)
system.l2.demand_accesses::cpu.inst              8379                       # number of demand (read+write) accesses
system.l2.demand_accesses::cpu.data            221221                       # number of demand (read+write) accesses
system.l2.demand_accesses::total               229600                       # number of demand (read+write) accesses
system.l2.overall_accesses::cpu.inst             8379                       # number of overall (read+write) accesses
system.l2.overall_accesses::cpu.data           221221                       # number of overall (read+write) accesses
system.l2.overall_accesses::total              229600                       # number of overall (read+write) accesses
system.l2.ReadExReq_miss_rate::cpu.data      0.042994                       # miss rate for ReadExReq accesses
system.l2.ReadExReq_miss_rate::total         0.042994                       # miss rate for ReadExReq accesses
system.l2.ReadCleanReq_miss_rate::cpu.inst     0.303736                       # miss rate for ReadCleanReq accesses
system.l2.ReadCleanReq_miss_rate::total      0.303736                       # miss rate for ReadCleanReq accesses
system.l2.ReadSharedReq_miss_rate::cpu.data     0.040433                       # miss rate for ReadSharedReq accesses
system.l2.ReadSharedReq_miss_rate::total     0.040433                       # miss rate for ReadSharedReq accesses
system.l2.demand_miss_rate::cpu.inst         0.303736                       # miss rate for demand accesses
system.l2.demand_miss_rate::cpu.data         0.042437                       # miss rate for demand accesses
system.l2.demand_miss_rate::total            0.051973                       # miss rate for demand accesses
system.l2.overall_miss_rate::cpu.inst        0.303736                       # miss rate for overall accesses
system.l2.overall_miss_rate::cpu.data        0.042437                       # miss rate for overall accesses
system.l2.overall_miss_rate::total           0.051973                       # miss rate for overall accesses
system.l2.ReadExReq_avg_miss_latency::cpu.data 85459.363246                       # average ReadExReq miss latency
system.l2.ReadExReq_avg_miss_latency::total 85459.363246                       # average ReadExReq miss latency
system.l2.ReadCleanReq_avg_miss_latency::cpu.inst 124461.100196                       # average ReadCleanReq miss latency
system.l2.ReadCleanReq_avg_miss_latency::total 124461.100196                       # average ReadCleanReq miss latency
system.l2.ReadSharedReq_avg_miss_latency::cpu.data 151400.462963                       # average ReadSharedReq miss latency
system.l2.ReadSharedReq_avg_miss_latency::total 151400.462963                       # average ReadSharedReq miss latency
system.l2.demand_avg_miss_latency::cpu.inst 124461.100196                       # average overall miss latency
system.l2.demand_avg_miss_latency::cpu.data 99113.975288                       # average overall miss latency
system.l2.demand_avg_miss_latency::total 104519.860890                       # average overall miss latency
system.l2.overall_avg_miss_latency::cpu.inst 124461.100196                       # average overall miss latency
system.l2.overall_avg_miss_latency::cpu.data 99113.975288                       # average overall miss latency
system.l2.overall_avg_miss_latency::total 104519.860890                       # average overall miss latency
system.l2.blocked_cycles::no_mshrs                  0                       # number of cycles access was blocked
system.l2.blocked_cycles::no_targets                0                       # number of cycles access was blocked
system.l2.blocked::no_mshrs                         0                       # number of cycles access was blocked
system.l2.blocked::no_targets                       0                       # number of cycles access was blocked
system.l2.avg_blocked_cycles::no_mshrs            nan                       # average number of cycles each access was blocked
system.l2.avg_blocked_cycles::no_targets          nan                       # average number of cycles each access was blocked
system.l2.writebacks::writebacks                   20                       # number of writebacks
system.l2.writebacks::total                        20                       # number of writebacks
system.l2.CleanEvict_mshr_misses::writebacks          140                       # number of CleanEvict MSHR misses
system.l2.CleanEvict_mshr_misses::total           140                       # number of CleanEvict MSHR misses
system.l2.ReadExReq_mshr_misses::cpu.data         7444                       # number of ReadExReq MSHR misses
system.l2.ReadExReq_mshr_misses::total           7444                       # number of ReadExReq MSHR misses
system.l2.ReadCleanReq_mshr_misses::cpu.inst         2545                       # number of ReadCleanReq MSHR misses
system.l2.ReadCleanReq_mshr_misses::total         2545                       # number of ReadCleanReq MSHR misses
system.l2.ReadSharedReq_mshr_misses::cpu.data         1944                       # number of ReadSharedReq MSHR misses
system.l2.ReadSharedReq_mshr_misses::total         1944                       # number of ReadSharedReq MSHR misses
system.l2.demand_mshr_misses::cpu.inst           2545                       # number of demand (read+write) MSHR misses
system.l2.demand_mshr_misses::cpu.data           9388                       # number of demand (read+write) MSHR misses
system.l2.demand_mshr_misses::total             11933                       # number of demand (read+write) MSHR misses
system.l2.overall_mshr_misses::cpu.inst          2545                       # number of overall MSHR misses
system.l2.overall_mshr_misses::cpu.data          9388                       # number of overall MSHR misses
system.l2.overall_mshr_misses::total            11933                       # number of overall MSHR misses
system.l2.ReadExReq_mshr_miss_latency::cpu.data    561719500                       # number of ReadExReq MSHR miss cycles
system.l2.ReadExReq_mshr_miss_latency::total    561719500                       # number of ReadExReq MSHR miss cycles
system.l2.ReadCleanReq_mshr_miss_latency::cpu.inst    291303500                       # number of ReadCleanReq MSHR miss cycles
system.l2.ReadCleanReq_mshr_miss_latency::total    291303500                       # number of ReadCleanReq MSHR miss cycles
system.l2.ReadSharedReq_mshr_miss_latency::cpu.data    274882500                       # number of ReadSharedReq MSHR miss cycles
system.l2.ReadSharedReq_mshr_miss_latency::total    274882500                       # number of ReadSharedReq MSHR miss cycles
system.l2.demand_mshr_miss_latency::cpu.inst    291303500                       # number of demand (read+write) MSHR miss cycles
system.l2.demand_mshr_miss_latency::cpu.data    836602000                       # number of demand (read+write) MSHR miss cycles
system.l2.demand_mshr_miss_latency::total   1127905500                       # number of demand (read+write) MSHR miss cycles
system.l2.overall_mshr_miss_latency::cpu.inst    291303500                       # number of overall MSHR miss cycles
system.l2.overall_mshr_miss_latency::cpu.data    836602000                       # number of overall MSHR miss cycles
system.l2.overall_mshr_miss_latency::total   1127905500                       # number of overall MSHR miss cycles
system.l2.CleanEvict_mshr_miss_rate::writebacks          inf                       # mshr miss rate for CleanEvict accesses
system.l2.CleanEvict_mshr_miss_rate::total          inf                       # mshr miss rate for CleanEvict accesses
system.l2.ReadExReq_mshr_miss_rate::cpu.data     0.042994                       # mshr miss rate for ReadExReq accesses
system.l2.ReadExReq_mshr_miss_rate::total     0.042994                       # mshr miss rate for ReadExReq accesses
system.l2.ReadCleanReq_mshr_miss_rate::cpu.inst     0.303736                       # mshr miss rate for ReadCleanReq accesses
system.l2.ReadCleanReq_mshr_miss_rate::total     0.303736                       # mshr miss rate for ReadCleanReq accesses
system.l2.ReadSharedReq_mshr_miss_rate::cpu.data     0.040433                       # mshr miss rate for ReadSharedReq accesses
system.l2.ReadSharedReq_mshr_miss_rate::total     0.040433                       # mshr miss rate for ReadSharedReq accesses
system.l2.demand_mshr_miss_rate::cpu.inst     0.303736                       # mshr miss rate for demand accesses
system.l2.demand_mshr_miss_rate::cpu.data     0.042437                       # mshr miss rate for demand accesses
system.l2.demand_mshr_miss_rate::total       0.051973                       # mshr miss rate for demand accesses
system.l2.overall_mshr_miss_rate::cpu.inst     0.303736                       # mshr miss rate for overall accesses
system.l2.overall_mshr_miss_rate::cpu.data     0.042437                       # mshr miss rate for overall accesses
system.l2.overall_mshr_miss_rate::total      0.051973                       # mshr miss rate for overall accesses
system.l2.ReadExReq_avg_mshr_miss_latency::cpu.data 75459.363246                       # average ReadExReq mshr miss latency
system.l2.ReadExReq_avg_mshr_miss_latency::total 75459.363246                       # average ReadExReq mshr miss latency
system.l2.ReadCleanReq_avg_mshr_miss_latency::cpu.inst 114461.100196                       # average ReadCleanReq mshr miss latency
system.l2.ReadCleanReq_avg_mshr_miss_latency::total 114461.100196                       # average ReadCleanReq mshr miss latency
system.l2.ReadSharedReq_avg_mshr_miss_latency::cpu.data 141400.462963                       # average ReadSharedReq mshr miss latency
system.l2.ReadSharedReq_avg_mshr_miss_latency::total 141400.462963                       # average ReadSharedReq mshr miss latency
system.l2.demand_avg_mshr_miss_latency::cpu.inst 114461.100196                       # average overall mshr miss latency
system.l2.demand_avg_mshr_miss_latency::cpu.data 89113.975288                       # average overall mshr miss latency
system.l2.demand_avg_mshr_miss_latency::total 94519.860890                       # average overall mshr miss latency
system.l2.overall_avg_mshr_miss_latency::cpu.inst 114461.100196                       # average overall mshr miss latency
system.l2.overall_avg_mshr_miss_latency::cpu.data 89113.975288                       # average overall mshr miss latency
system.l2.overall_avg_mshr_miss_latency::total 94519.860890                       # average overall mshr miss latency
system.membus.snoop_filter.tot_requests         12575                       # Total number of requests made to the snoop filter.
system.membus.snoop_filter.hit_single_requests          642                       # Number of requests hitting in the snoop filter with a single holder of the requested data.
system.membus.snoop_filter.hit_multi_requests            0                       # Number of requests hitting in the snoop filter with multiple (>1) holders of the requested data.
system.membus.snoop_filter.tot_snoops               0                       # Total number of snoops made to the snoop filter.
system.membus.snoop_filter.hit_single_snoops            0                       # Number of snoops hitting in the snoop filter with a single holder of the requested data.
system.membus.snoop_filter.hit_multi_snoops            0                       # Number of snoops hitting in the snoop filter with multiple (>1) holders of the requested data.
system.membus.pwrStateResidencyTicks::UNDEFINED 954624651500                       # Cumulative time (in ticks) in various power states
system.membus.trans_dist::ReadResp               4489                       # Transaction distribution
system.membus.trans_dist::WritebackDirty           20                       # Transaction distribution
system.membus.trans_dist::CleanEvict              622                       # Transaction distribution
system.membus.trans_dist::ReadExReq              7444                       # Transaction distribution
system.membus.trans_dist::ReadExResp             7444                       # Transaction distribution
system.membus.trans_dist::ReadSharedReq          4489                       # Transaction distribution
system.membus.pkt_count_system.l2.mem_side::system.mem_ctrls.port        24508                       # Packet count per connected master and slave (bytes)
system.membus.pkt_count_system.l2.mem_side::total        24508                       # Packet count per connected master and slave (bytes)
system.membus.pkt_count::total                  24508                       # Packet count per connected master and slave (bytes)
system.membus.pkt_size_system.l2.mem_side::system.mem_ctrls.port       382496                       # Cumulative packet size per connected master and slave (bytes)
system.membus.pkt_size_system.l2.mem_side::total       382496                       # Cumulative packet size per connected master and slave (bytes)
system.membus.pkt_size::total                  382496                       # Cumulative packet size per connected master and slave (bytes)
system.membus.snoops                                0                       # Total snoops (count)
system.membus.snoopTraffic                          0                       # Total snoop traffic (bytes)
system.membus.snoop_fanout::samples             11933                       # Request fanout histogram
system.membus.snoop_fanout::mean                    0                       # Request fanout histogram
system.membus.snoop_fanout::stdev                   0                       # Request fanout histogram
system.membus.snoop_fanout::underflows              0      0.00%      0.00% # Request fanout histogram
system.membus.snoop_fanout::0                   11933    100.00%    100.00% # Request fanout histogram
system.membus.snoop_fanout::1                       0      0.00%    100.00% # Request fanout histogram
system.membus.snoop_fanout::overflows               0      0.00%    100.00% # Request fanout histogram
system.membus.snoop_fanout::min_value               0                       # Request fanout histogram
system.membus.snoop_fanout::max_value               0                       # Request fanout histogram
system.membus.snoop_fanout::total               11933                       # Request fanout histogram
system.membus.reqLayer2.occupancy            12730000                       # Layer occupancy (ticks)
system.membus.reqLayer2.utilization               0.0                       # Layer utilization (%)
system.membus.respLayer1.occupancy           39685250                       # Layer occupancy (ticks)
system.membus.respLayer1.utilization              0.0                       # Layer utilization (%)
system.tol2bus.snoop_filter.tot_requests       454090                       # Total number of requests made to the snoop filter.
system.tol2bus.snoop_filter.hit_single_requests       224490                       # Number of requests hitting in the snoop filter with a single holder of the requested data.
system.tol2bus.snoop_filter.hit_multi_requests            0                       # Number of requests hitting in the snoop filter with multiple (>1) holders of the requested data.
system.tol2bus.snoop_filter.tot_snoops            646                       # Total number of snoops made to the snoop filter.
system.tol2bus.snoop_filter.hit_single_snoops          646                       # Number of snoops hitting in the snoop filter with a single holder of the requested data.
system.tol2bus.snoop_filter.hit_multi_snoops            0                       # Number of snoops hitting in the snoop filter with multiple (>1) holders of the requested data.
system.tol2bus.pwrStateResidencyTicks::UNDEFINED 954624651500                       # Cumulative time (in ticks) in various power states
system.tol2bus.trans_dist::ReadResp             56459                       # Transaction distribution
system.tol2bus.trans_dist::WritebackDirty       212765                       # Transaction distribution
system.tol2bus.trans_dist::WritebackClean         7365                       # Transaction distribution
system.tol2bus.trans_dist::CleanEvict            5508                       # Transaction distribution
system.tol2bus.trans_dist::ReadExReq           173141                       # Transaction distribution
system.tol2bus.trans_dist::ReadExResp          173141                       # Transaction distribution
system.tol2bus.trans_dist::ReadCleanReq          8379                       # Transaction distribution
system.tol2bus.trans_dist::ReadSharedReq        48080                       # Transaction distribution
system.tol2bus.pkt_count_system.cpu.icache.mem_side::system.l2.cpu_side        24123                       # Packet count per connected master and slave (bytes)
system.tol2bus.pkt_count_system.cpu.dcache.mem_side::system.l2.cpu_side       659567                       # Packet count per connected master and slave (bytes)
system.tol2bus.pkt_count::total                683690                       # Packet count per connected master and slave (bytes)
system.tol2bus.pkt_size_system.cpu.icache.mem_side::system.l2.cpu_side       503808                       # Cumulative packet size per connected master and slave (bytes)
system.tol2bus.pkt_size_system.cpu.dcache.mem_side::system.l2.cpu_side     13886912                       # Cumulative packet size per connected master and slave (bytes)
system.tol2bus.pkt_size::total               14390720                       # Cumulative packet size per connected master and slave (bytes)
system.tol2bus.snoops                            1148                       # Total snoops (count)
system.tol2bus.snoopTraffic                       640                       # Total snoop traffic (bytes)
system.tol2bus.snoop_fanout::samples           230748                       # Request fanout histogram
system.tol2bus.snoop_fanout::mean            0.002800                       # Request fanout histogram
system.tol2bus.snoop_fanout::stdev           0.052837                       # Request fanout histogram
system.tol2bus.snoop_fanout::underflows             0      0.00%      0.00% # Request fanout histogram
system.tol2bus.snoop_fanout::0                 230102     99.72%     99.72% # Request fanout histogram
system.tol2bus.snoop_fanout::1                    646      0.28%    100.00% # Request fanout histogram
system.tol2bus.snoop_fanout::2                      0      0.00%    100.00% # Request fanout histogram
system.tol2bus.snoop_fanout::3                      0      0.00%    100.00% # Request fanout histogram
system.tol2bus.snoop_fanout::4                      0      0.00%    100.00% # Request fanout histogram
system.tol2bus.snoop_fanout::overflows              0      0.00%    100.00% # Request fanout histogram
system.tol2bus.snoop_fanout::min_value              0                       # Request fanout histogram
system.tol2bus.snoop_fanout::max_value              1                       # Request fanout histogram
system.tol2bus.snoop_fanout::total             230748                       # Request fanout histogram
system.tol2bus.reqLayer0.occupancy          337100000                       # Layer occupancy (ticks)
system.tol2bus.reqLayer0.utilization              0.0                       # Layer utilization (%)
system.tol2bus.respLayer0.occupancy           8379000                       # Layer occupancy (ticks)
system.tol2bus.respLayer0.utilization             0.0                       # Layer utilization (%)
system.tol2bus.respLayer1.occupancy         221221000                       # Layer occupancy (ticks)
system.tol2bus.respLayer1.utilization             0.0                       # Layer utilization (%)

---------- End Simulation Statistics   ----------
