
---------- Begin Simulation Statistics ----------
sim_seconds                                  1.731033                       # Number of seconds simulated
sim_ticks                                1731033353500                       # Number of ticks simulated
final_tick                               1731033353500                       # Number of ticks from beginning of simulation (restored from checkpoints and never reset)
sim_freq                                 1000000000000                       # Frequency of simulated ticks
host_inst_rate                                 506778                       # Simulator instruction rate (inst/s)
host_op_rate                                   834528                       # Simulator op (including micro ops) rate (op/s)
host_tick_rate                             1754499053                       # Simulator tick rate (ticks/s)
host_mem_usage                                 666084                       # Number of bytes of host memory used
host_seconds                                   986.63                       # Real time elapsed on the host
sim_insts                                   500000000                       # Number of instructions simulated
sim_ops                                     823366692                       # Number of ops (including micro ops) simulated
system.voltage_domain.voltage                       1                       # Voltage in Volts
system.clk_domain.clock                          1000                       # Clock period in ticks
system.mem_ctrls.pwrStateResidencyTicks::UNDEFINED 1731033353500                       # Cumulative time (in ticks) in various power states
system.mem_ctrls.bytes_read::cpu.inst          125760                       # Number of bytes read from this memory
system.mem_ctrls.bytes_read::cpu.data       535958592                       # Number of bytes read from this memory
system.mem_ctrls.bytes_read::total          536084352                       # Number of bytes read from this memory
system.mem_ctrls.bytes_inst_read::cpu.inst       125760                       # Number of instructions bytes read from this memory
system.mem_ctrls.bytes_inst_read::total        125760                       # Number of instructions bytes read from this memory
system.mem_ctrls.bytes_written::writebacks    534096704                       # Number of bytes written to this memory
system.mem_ctrls.bytes_written::total       534096704                       # Number of bytes written to this memory
system.mem_ctrls.num_reads::cpu.inst             1965                       # Number of read requests responded to by this memory
system.mem_ctrls.num_reads::cpu.data          8374353                       # Number of read requests responded to by this memory
system.mem_ctrls.num_reads::total             8376318                       # Number of read requests responded to by this memory
system.mem_ctrls.num_writes::writebacks       8345261                       # Number of write requests responded to by this memory
system.mem_ctrls.num_writes::total            8345261                       # Number of write requests responded to by this memory
system.mem_ctrls.bw_read::cpu.inst              72650                       # Total read bandwidth from this memory (bytes/s)
system.mem_ctrls.bw_read::cpu.data          309617715                       # Total read bandwidth from this memory (bytes/s)
system.mem_ctrls.bw_read::total             309690366                       # Total read bandwidth from this memory (bytes/s)
system.mem_ctrls.bw_inst_read::cpu.inst         72650                       # Instruction read bandwidth from this memory (bytes/s)
system.mem_ctrls.bw_inst_read::total            72650                       # Instruction read bandwidth from this memory (bytes/s)
system.mem_ctrls.bw_write::writebacks       308542122                       # Write bandwidth from this memory (bytes/s)
system.mem_ctrls.bw_write::total            308542122                       # Write bandwidth from this memory (bytes/s)
system.mem_ctrls.bw_total::writebacks       308542122                       # Total bandwidth to/from this memory (bytes/s)
system.mem_ctrls.bw_total::cpu.inst             72650                       # Total bandwidth to/from this memory (bytes/s)
system.mem_ctrls.bw_total::cpu.data         309617715                       # Total bandwidth to/from this memory (bytes/s)
system.mem_ctrls.bw_total::total            618232487                       # Total bandwidth to/from this memory (bytes/s)
system.mem_ctrls.readReqs                     8376318                       # Number of read requests accepted
system.mem_ctrls.writeReqs                    8345261                       # Number of write requests accepted
system.mem_ctrls.readBursts                   8376318                       # Number of DRAM read bursts, including those serviced by the write queue
system.mem_ctrls.writeBursts                  8345261                       # Number of DRAM write bursts, including those merged in the write queue
system.mem_ctrls.bytesReadDRAM              536083008                       # Total number of bytes read from DRAM
system.mem_ctrls.bytesReadWrQ                    1344                       # Total number of bytes read from write queue
system.mem_ctrls.bytesWritten               534095168                       # Total number of bytes written to DRAM
system.mem_ctrls.bytesReadSys               536084352                       # Total read bytes from the system interface side
system.mem_ctrls.bytesWrittenSys            534096704                       # Total written bytes from the system interface side
system.mem_ctrls.servicedByWrQ                     21                       # Number of DRAM read bursts serviced by the write queue
system.mem_ctrls.mergedWrBursts                     0                       # Number of DRAM write bursts merged with an existing one
system.mem_ctrls.neitherReadNorWriteReqs            0                       # Number of requests that are neither read nor write
system.mem_ctrls.perBankRdBursts::0            523388                       # Per bank write bursts
system.mem_ctrls.perBankRdBursts::1            523145                       # Per bank write bursts
system.mem_ctrls.perBankRdBursts::2            523282                       # Per bank write bursts
system.mem_ctrls.perBankRdBursts::3            523746                       # Per bank write bursts
system.mem_ctrls.perBankRdBursts::4            523624                       # Per bank write bursts
system.mem_ctrls.perBankRdBursts::5            523632                       # Per bank write bursts
system.mem_ctrls.perBankRdBursts::6            523505                       # Per bank write bursts
system.mem_ctrls.perBankRdBursts::7            523478                       # Per bank write bursts
system.mem_ctrls.perBankRdBursts::8            523062                       # Per bank write bursts
system.mem_ctrls.perBankRdBursts::9            523430                       # Per bank write bursts
system.mem_ctrls.perBankRdBursts::10           523538                       # Per bank write bursts
system.mem_ctrls.perBankRdBursts::11           523846                       # Per bank write bursts
system.mem_ctrls.perBankRdBursts::12           523790                       # Per bank write bursts
system.mem_ctrls.perBankRdBursts::13           523696                       # Per bank write bursts
system.mem_ctrls.perBankRdBursts::14           523528                       # Per bank write bursts
system.mem_ctrls.perBankRdBursts::15           523607                       # Per bank write bursts
system.mem_ctrls.perBankWrBursts::0            521511                       # Per bank write bursts
system.mem_ctrls.perBankWrBursts::1            521301                       # Per bank write bursts
system.mem_ctrls.perBankWrBursts::2            521526                       # Per bank write bursts
system.mem_ctrls.perBankWrBursts::3            521746                       # Per bank write bursts
system.mem_ctrls.perBankWrBursts::4            521555                       # Per bank write bursts
system.mem_ctrls.perBankWrBursts::5            521687                       # Per bank write bursts
system.mem_ctrls.perBankWrBursts::6            521442                       # Per bank write bursts
system.mem_ctrls.perBankWrBursts::7            521471                       # Per bank write bursts
system.mem_ctrls.perBankWrBursts::8            521283                       # Per bank write bursts
system.mem_ctrls.perBankWrBursts::9            521421                       # Per bank write bursts
system.mem_ctrls.perBankWrBursts::10           521549                       # Per bank write bursts
system.mem_ctrls.perBankWrBursts::11           521800                       # Per bank write bursts
system.mem_ctrls.perBankWrBursts::12           521794                       # Per bank write bursts
system.mem_ctrls.perBankWrBursts::13           521822                       # Per bank write bursts
system.mem_ctrls.perBankWrBursts::14           521666                       # Per bank write bursts
system.mem_ctrls.perBankWrBursts::15           521663                       # Per bank write bursts
system.mem_ctrls.numRdRetry                         0                       # Number of times read queue was full causing retry
system.mem_ctrls.numWrRetry                         0                       # Number of times write queue was full causing retry
system.mem_ctrls.totGap                  1731020398500                       # Total gap between requests
system.mem_ctrls.readPktSize::0                     0                       # Read request sizes (log2)
system.mem_ctrls.readPktSize::1                     0                       # Read request sizes (log2)
system.mem_ctrls.readPktSize::2                     0                       # Read request sizes (log2)
system.mem_ctrls.readPktSize::3                     0                       # Read request sizes (log2)
system.mem_ctrls.readPktSize::4                     0                       # Read request sizes (log2)
system.mem_ctrls.readPktSize::5                     0                       # Read request sizes (log2)
system.mem_ctrls.readPktSize::6               8376318                       # Read request sizes (log2)
system.mem_ctrls.writePktSize::0                    0                       # Write request sizes (log2)
system.mem_ctrls.writePktSize::1                    0                       # Write request sizes (log2)
system.mem_ctrls.writePktSize::2                    0                       # Write request sizes (log2)
system.mem_ctrls.writePktSize::3                    0                       # Write request sizes (log2)
system.mem_ctrls.writePktSize::4                    0                       # Write request sizes (log2)
system.mem_ctrls.writePktSize::5                    0                       # Write request sizes (log2)
system.mem_ctrls.writePktSize::6              8345261                       # Write request sizes (log2)
system.mem_ctrls.rdQLenPdf::0                 8376296                       # What read queue length does an incoming req see
system.mem_ctrls.rdQLenPdf::1                       1                       # What read queue length does an incoming req see
system.mem_ctrls.rdQLenPdf::2                       0                       # What read queue length does an incoming req see
system.mem_ctrls.rdQLenPdf::3                       0                       # What read queue length does an incoming req see
system.mem_ctrls.rdQLenPdf::4                       0                       # What read queue length does an incoming req see
system.mem_ctrls.rdQLenPdf::5                       0                       # What read queue length does an incoming req see
system.mem_ctrls.rdQLenPdf::6                       0                       # What read queue length does an incoming req see
system.mem_ctrls.rdQLenPdf::7                       0                       # What read queue length does an incoming req see
system.mem_ctrls.rdQLenPdf::8                       0                       # What read queue length does an incoming req see
system.mem_ctrls.rdQLenPdf::9                       0                       # What read queue length does an incoming req see
system.mem_ctrls.rdQLenPdf::10                      0                       # What read queue length does an incoming req see
system.mem_ctrls.rdQLenPdf::11                      0                       # What read queue length does an incoming req see
system.mem_ctrls.rdQLenPdf::12                      0                       # What read queue length does an incoming req see
system.mem_ctrls.rdQLenPdf::13                      0                       # What read queue length does an incoming req see
system.mem_ctrls.rdQLenPdf::14                      0                       # What read queue length does an incoming req see
system.mem_ctrls.rdQLenPdf::15                      0                       # What read queue length does an incoming req see
system.mem_ctrls.rdQLenPdf::16                      0                       # What read queue length does an incoming req see
system.mem_ctrls.rdQLenPdf::17                      0                       # What read queue length does an incoming req see
system.mem_ctrls.rdQLenPdf::18                      0                       # What read queue length does an incoming req see
system.mem_ctrls.rdQLenPdf::19                      0                       # What read queue length does an incoming req see
system.mem_ctrls.rdQLenPdf::20                      0                       # What read queue length does an incoming req see
system.mem_ctrls.rdQLenPdf::21                      0                       # What read queue length does an incoming req see
system.mem_ctrls.rdQLenPdf::22                      0                       # What read queue length does an incoming req see
system.mem_ctrls.rdQLenPdf::23                      0                       # What read queue length does an incoming req see
system.mem_ctrls.rdQLenPdf::24                      0                       # What read queue length does an incoming req see
system.mem_ctrls.rdQLenPdf::25                      0                       # What read queue length does an incoming req see
system.mem_ctrls.rdQLenPdf::26                      0                       # What read queue length does an incoming req see
system.mem_ctrls.rdQLenPdf::27                      0                       # What read queue length does an incoming req see
system.mem_ctrls.rdQLenPdf::28                      0                       # What read queue length does an incoming req see
system.mem_ctrls.rdQLenPdf::29                      0                       # What read queue length does an incoming req see
system.mem_ctrls.rdQLenPdf::30                      0                       # What read queue length does an incoming req see
system.mem_ctrls.rdQLenPdf::31                      0                       # What read queue length does an incoming req see
system.mem_ctrls.wrQLenPdf::0                       1                       # What write queue length does an incoming req see
system.mem_ctrls.wrQLenPdf::1                       1                       # What write queue length does an incoming req see
system.mem_ctrls.wrQLenPdf::2                       1                       # What write queue length does an incoming req see
system.mem_ctrls.wrQLenPdf::3                       1                       # What write queue length does an incoming req see
system.mem_ctrls.wrQLenPdf::4                       1                       # What write queue length does an incoming req see
system.mem_ctrls.wrQLenPdf::5                       1                       # What write queue length does an incoming req see
system.mem_ctrls.wrQLenPdf::6                       1                       # What write queue length does an incoming req see
system.mem_ctrls.wrQLenPdf::7                       1                       # What write queue length does an incoming req see
system.mem_ctrls.wrQLenPdf::8                       1                       # What write queue length does an incoming req see
system.mem_ctrls.wrQLenPdf::9                       1                       # What write queue length does an incoming req see
system.mem_ctrls.wrQLenPdf::10                      1                       # What write queue length does an incoming req see
system.mem_ctrls.wrQLenPdf::11                      1                       # What write queue length does an incoming req see
system.mem_ctrls.wrQLenPdf::12                      1                       # What write queue length does an incoming req see
system.mem_ctrls.wrQLenPdf::13                      1                       # What write queue length does an incoming req see
system.mem_ctrls.wrQLenPdf::14                      1                       # What write queue length does an incoming req see
system.mem_ctrls.wrQLenPdf::15                   4944                       # What write queue length does an incoming req see
system.mem_ctrls.wrQLenPdf::16                   4989                       # What write queue length does an incoming req see
system.mem_ctrls.wrQLenPdf::17                 520935                       # What write queue length does an incoming req see
system.mem_ctrls.wrQLenPdf::18                 520956                       # What write queue length does an incoming req see
system.mem_ctrls.wrQLenPdf::19                 520956                       # What write queue length does an incoming req see
system.mem_ctrls.wrQLenPdf::20                 520958                       # What write queue length does an incoming req see
system.mem_ctrls.wrQLenPdf::21                 520957                       # What write queue length does an incoming req see
system.mem_ctrls.wrQLenPdf::22                 520957                       # What write queue length does an incoming req see
system.mem_ctrls.wrQLenPdf::23                 520958                       # What write queue length does an incoming req see
system.mem_ctrls.wrQLenPdf::24                 520956                       # What write queue length does an incoming req see
system.mem_ctrls.wrQLenPdf::25                 520957                       # What write queue length does an incoming req see
system.mem_ctrls.wrQLenPdf::26                 520959                       # What write queue length does an incoming req see
system.mem_ctrls.wrQLenPdf::27                 520957                       # What write queue length does an incoming req see
system.mem_ctrls.wrQLenPdf::28                 520957                       # What write queue length does an incoming req see
system.mem_ctrls.wrQLenPdf::29                 520978                       # What write queue length does an incoming req see
system.mem_ctrls.wrQLenPdf::30                 520959                       # What write queue length does an incoming req see
system.mem_ctrls.wrQLenPdf::31                 520957                       # What write queue length does an incoming req see
system.mem_ctrls.wrQLenPdf::32                 520956                       # What write queue length does an incoming req see
system.mem_ctrls.wrQLenPdf::33                      0                       # What write queue length does an incoming req see
system.mem_ctrls.wrQLenPdf::34                      0                       # What write queue length does an incoming req see
system.mem_ctrls.wrQLenPdf::35                      0                       # What write queue length does an incoming req see
system.mem_ctrls.wrQLenPdf::36                      0                       # What write queue length does an incoming req see
system.mem_ctrls.wrQLenPdf::37                      0                       # What write queue length does an incoming req see
system.mem_ctrls.wrQLenPdf::38                      0                       # What write queue length does an incoming req see
system.mem_ctrls.wrQLenPdf::39                      0                       # What write queue length does an incoming req see
system.mem_ctrls.wrQLenPdf::40                      0                       # What write queue length does an incoming req see
system.mem_ctrls.wrQLenPdf::41                      0                       # What write queue length does an incoming req see
system.mem_ctrls.wrQLenPdf::42                      0                       # What write queue length does an incoming req see
system.mem_ctrls.wrQLenPdf::43                      0                       # What write queue length does an incoming req see
system.mem_ctrls.wrQLenPdf::44                      0                       # What write queue length does an incoming req see
system.mem_ctrls.wrQLenPdf::45                      0                       # What write queue length does an incoming req see
system.mem_ctrls.wrQLenPdf::46                      0                       # What write queue length does an incoming req see
system.mem_ctrls.wrQLenPdf::47                      0                       # What write queue length does an incoming req see
system.mem_ctrls.wrQLenPdf::48                      0                       # What write queue length does an incoming req see
system.mem_ctrls.wrQLenPdf::49                      0                       # What write queue length does an incoming req see
system.mem_ctrls.wrQLenPdf::50                      0                       # What write queue length does an incoming req see
system.mem_ctrls.wrQLenPdf::51                      0                       # What write queue length does an incoming req see
system.mem_ctrls.wrQLenPdf::52                      0                       # What write queue length does an incoming req see
system.mem_ctrls.wrQLenPdf::53                      0                       # What write queue length does an incoming req see
system.mem_ctrls.wrQLenPdf::54                      0                       # What write queue length does an incoming req see
system.mem_ctrls.wrQLenPdf::55                      0                       # What write queue length does an incoming req see
system.mem_ctrls.wrQLenPdf::56                      0                       # What write queue length does an incoming req see
system.mem_ctrls.wrQLenPdf::57                      0                       # What write queue length does an incoming req see
system.mem_ctrls.wrQLenPdf::58                      0                       # What write queue length does an incoming req see
system.mem_ctrls.wrQLenPdf::59                      0                       # What write queue length does an incoming req see
system.mem_ctrls.wrQLenPdf::60                      0                       # What write queue length does an incoming req see
system.mem_ctrls.wrQLenPdf::61                      0                       # What write queue length does an incoming req see
system.mem_ctrls.wrQLenPdf::62                      0                       # What write queue length does an incoming req see
system.mem_ctrls.wrQLenPdf::63                      0                       # What write queue length does an incoming req see
system.mem_ctrls.bytesPerActivate::samples      1424455                       # Bytes accessed per row activation
system.mem_ctrls.bytesPerActivate::mean    751.289564                       # Bytes accessed per row activation
system.mem_ctrls.bytesPerActivate::gmean   564.412130                       # Bytes accessed per row activation
system.mem_ctrls.bytesPerActivate::stdev   369.966609                       # Bytes accessed per row activation
system.mem_ctrls.bytesPerActivate::0-127       178521     12.53%     12.53% # Bytes accessed per row activation
system.mem_ctrls.bytesPerActivate::128-255        62514      4.39%     16.92% # Bytes accessed per row activation
system.mem_ctrls.bytesPerActivate::256-383        54543      3.83%     20.75% # Bytes accessed per row activation
system.mem_ctrls.bytesPerActivate::384-511        80231      5.63%     26.38% # Bytes accessed per row activation
system.mem_ctrls.bytesPerActivate::512-639        94572      6.64%     33.02% # Bytes accessed per row activation
system.mem_ctrls.bytesPerActivate::640-767        42613      2.99%     36.01% # Bytes accessed per row activation
system.mem_ctrls.bytesPerActivate::768-895        38613      2.71%     38.72% # Bytes accessed per row activation
system.mem_ctrls.bytesPerActivate::896-1023        47015      3.30%     42.02% # Bytes accessed per row activation
system.mem_ctrls.bytesPerActivate::1024-1151       825833     57.98%    100.00% # Bytes accessed per row activation
system.mem_ctrls.bytesPerActivate::total      1424455                       # Bytes accessed per row activation
system.mem_ctrls.rdPerTurnAround::samples       520956                       # Reads before turning the bus around for writes
system.mem_ctrls.rdPerTurnAround::mean      16.078680                       # Reads before turning the bus around for writes
system.mem_ctrls.rdPerTurnAround::gmean     16.041584                       # Reads before turning the bus around for writes
system.mem_ctrls.rdPerTurnAround::stdev     16.840682                       # Reads before turning the bus around for writes
system.mem_ctrls.rdPerTurnAround::0-511        520952    100.00%    100.00% # Reads before turning the bus around for writes
system.mem_ctrls.rdPerTurnAround::512-1023            2      0.00%    100.00% # Reads before turning the bus around for writes
system.mem_ctrls.rdPerTurnAround::1024-1535            1      0.00%    100.00% # Reads before turning the bus around for writes
system.mem_ctrls.rdPerTurnAround::11776-12287            1      0.00%    100.00% # Reads before turning the bus around for writes
system.mem_ctrls.rdPerTurnAround::total        520956                       # Reads before turning the bus around for writes
system.mem_ctrls.wrPerTurnAround::samples       520956                       # Writes before turning the bus around for reads
system.mem_ctrls.wrPerTurnAround::mean      16.019082                       # Writes before turning the bus around for reads
system.mem_ctrls.wrPerTurnAround::gmean     16.017992                       # Writes before turning the bus around for reads
system.mem_ctrls.wrPerTurnAround::stdev      0.194349                       # Writes before turning the bus around for reads
system.mem_ctrls.wrPerTurnAround::16           515968     99.04%     99.04% # Writes before turning the bus around for reads
system.mem_ctrls.wrPerTurnAround::17               45      0.01%     99.05% # Writes before turning the bus around for reads
system.mem_ctrls.wrPerTurnAround::18             4933      0.95%    100.00% # Writes before turning the bus around for reads
system.mem_ctrls.wrPerTurnAround::19               10      0.00%    100.00% # Writes before turning the bus around for reads
system.mem_ctrls.wrPerTurnAround::total        520956                       # Writes before turning the bus around for reads
system.mem_ctrls.totQLat                 164402943000                       # Total ticks spent queuing
system.mem_ctrls.totMemAccLat            321458511750                       # Total ticks spent from burst creation until serviced by the DRAM
system.mem_ctrls.totBusLat                41881485000                       # Total ticks spent in databus transfers
system.mem_ctrls.avgQLat                     19627.16                       # Average queueing delay per DRAM burst
system.mem_ctrls.avgBusLat                    5000.00                       # Average bus latency per DRAM burst
system.mem_ctrls.avgMemAccLat                38377.16                       # Average memory access latency per DRAM burst
system.mem_ctrls.avgRdBW                       309.69                       # Average DRAM read bandwidth in MiByte/s
system.mem_ctrls.avgWrBW                       308.54                       # Average achieved write bandwidth in MiByte/s
system.mem_ctrls.avgRdBWSys                    309.69                       # Average system read bandwidth in MiByte/s
system.mem_ctrls.avgWrBWSys                    308.54                       # Average system write bandwidth in MiByte/s
system.mem_ctrls.peakBW                      12800.00                       # Theoretical peak bandwidth in MiByte/s
system.mem_ctrls.busUtil                         4.83                       # Data bus utilization in percentage
system.mem_ctrls.busUtilRead                     2.42                       # Data bus utilization in percentage for reads
system.mem_ctrls.busUtilWrite                    2.41                       # Data bus utilization in percentage for writes
system.mem_ctrls.avgRdQLen                       1.00                       # Average read queue length when enqueuing
system.mem_ctrls.avgWrQLen                      25.21                       # Average write queue length when enqueuing
system.mem_ctrls.readRowHits                  7606698                       # Number of row buffer hits during reads
system.mem_ctrls.writeRowHits                 7690381                       # Number of row buffer hits during writes
system.mem_ctrls.readRowHitRate                 90.81                       # Row buffer hit rate for reads
system.mem_ctrls.writeRowHitRate                92.15                       # Row buffer hit rate for writes
system.mem_ctrls.avgGap                     103520.15                       # Average gap between requests
system.mem_ctrls.pageHitRate                    91.48                       # Row buffer hit rate, read and write combined
system.mem_ctrls_0.actEnergy               5088106800                       # Energy for activate commands per rank (pJ)
system.mem_ctrls_0.preEnergy               2704392900                       # Energy for precharge commands per rank (pJ)
system.mem_ctrls_0.readEnergy             29900892000                       # Energy for read commands per rank (pJ)
system.mem_ctrls_0.writeEnergy            21779087580                       # Energy for write commands per rank (pJ)
system.mem_ctrls_0.refreshEnergy         84014526960.000015                       # Energy for refresh commands per rank (pJ)
system.mem_ctrls_0.actBackEnergy          96583248720                       # Energy for active background per rank (pJ)
system.mem_ctrls_0.preBackEnergy           5810969280                       # Energy for precharge background per rank (pJ)
system.mem_ctrls_0.actPowerDownEnergy    200356015170                       # Energy for active power-down per rank (pJ)
system.mem_ctrls_0.prePowerDownEnergy     86168911680                       # Energy for precharge power-down per rank (pJ)
system.mem_ctrls_0.selfRefreshEnergy     214905110250                       # Energy for self refresh per rank (pJ)
system.mem_ctrls_0.totalEnergy           747335658360                       # Total energy per rank (pJ)
system.mem_ctrls_0.averagePower            431.728050                       # Core power per rank (mW)
system.mem_ctrls_0.totalIdleTime         1504008657750                       # Total Idle time Per DRAM Rank
system.mem_ctrls_0.memoryStateTime::IDLE   7583204250                       # Time in different power states
system.mem_ctrls_0.memoryStateTime::REF   35687382000                       # Time in different power states
system.mem_ctrls_0.memoryStateTime::SREF 840265844750                       # Time in different power states
system.mem_ctrls_0.memoryStateTime::PRE_PDN 224397984250                       # Time in different power states
system.mem_ctrls_0.memoryStateTime::ACT  183738825250                       # Time in different power states
system.mem_ctrls_0.memoryStateTime::ACT_PDN 439360113000                       # Time in different power states
system.mem_ctrls_1.actEnergy               5082501900                       # Energy for activate commands per rank (pJ)
system.mem_ctrls_1.preEnergy               2701413825                       # Energy for precharge commands per rank (pJ)
system.mem_ctrls_1.readEnergy             29905868580                       # Energy for read commands per rank (pJ)
system.mem_ctrls_1.writeEnergy            21783049560                       # Energy for write commands per rank (pJ)
system.mem_ctrls_1.refreshEnergy         83718885120.000015                       # Energy for refresh commands per rank (pJ)
system.mem_ctrls_1.actBackEnergy          96648511440                       # Energy for active background per rank (pJ)
system.mem_ctrls_1.preBackEnergy           5795986080                       # Energy for precharge background per rank (pJ)
system.mem_ctrls_1.actPowerDownEnergy    199532923770                       # Energy for active power-down per rank (pJ)
system.mem_ctrls_1.prePowerDownEnergy     85843963200                       # Energy for precharge power-down per rank (pJ)
system.mem_ctrls_1.selfRefreshEnergy     215425185075                       # Energy for self refresh per rank (pJ)
system.mem_ctrls_1.totalEnergy           746460983730                       # Total energy per rank (pJ)
system.mem_ctrls_1.averagePower            431.222760                       # Core power per rank (mW)
system.mem_ctrls_1.totalIdleTime         1503919876000                       # Total Idle time Per DRAM Rank
system.mem_ctrls_1.memoryStateTime::IDLE   7546947250                       # Time in different power states
system.mem_ctrls_1.memoryStateTime::REF   35561464000                       # Time in different power states
system.mem_ctrls_1.memoryStateTime::SREF 842816765750                       # Time in different power states
system.mem_ctrls_1.memoryStateTime::PRE_PDN 223551732750                       # Time in different power states
system.mem_ctrls_1.memoryStateTime::ACT  183999855750                       # Time in different power states
system.mem_ctrls_1.memoryStateTime::ACT_PDN 437556588000                       # Time in different power states
system.pwrStateResidencyTicks::UNDEFINED 1731033353500                       # Cumulative time (in ticks) in various power states
system.cpu_voltage_domain.voltage                   1                       # Voltage in Volts
system.cpu_clk_domain.clock                       500                       # Clock period in ticks
system.cpu.dtb.walker.pwrStateResidencyTicks::UNDEFINED 1731033353500                       # Cumulative time (in ticks) in various power states
system.cpu.apic_clk_domain.clock                 8000                       # Clock period in ticks
system.cpu.interrupts.pwrStateResidencyTicks::UNDEFINED 1731033353500                       # Cumulative time (in ticks) in various power states
system.cpu.itb.walker.pwrStateResidencyTicks::UNDEFINED 1731033353500                       # Cumulative time (in ticks) in various power states
system.cpu.workload.num_syscalls                  196                       # Number of system calls
system.cpu.pwrStateResidencyTicks::ON    1731033353500                       # Cumulative time (in ticks) in various power states
system.cpu.numCycles                       3462066707                       # number of cpu cycles simulated
system.cpu.numWorkItemsStarted                      0                       # number of work items this cpu started
system.cpu.numWorkItemsCompleted                    0                       # number of work items this cpu completed
system.cpu.committedInsts                   500000000                       # Number of instructions committed
system.cpu.committedOps                     823366692                       # Number of ops (including micro ops) committed
system.cpu.num_int_alu_accesses             821415783                       # Number of integer alu accesses
system.cpu.num_fp_alu_accesses               66619246                       # Number of float alu accesses
system.cpu.num_func_calls                     5652773                       # number of times a function call or return occured
system.cpu.num_conditional_control_insts     57208853                       # number of instructions that are conditional controls
system.cpu.num_int_insts                    821415783                       # number of integer instructions
system.cpu.num_fp_insts                      66619246                       # number of float instructions
system.cpu.num_int_register_reads          1637209917                       # number of times the integer registers were read
system.cpu.num_int_register_writes          639871082                       # number of times the integer registers were written
system.cpu.num_fp_register_reads             66766836                       # number of times the floating registers were read
system.cpu.num_fp_register_writes              208042                       # number of times the floating registers were written
system.cpu.num_cc_register_reads            319714243                       # number of times the CC registers were read
system.cpu.num_cc_register_writes           287984022                       # number of times the CC registers were written
system.cpu.num_mem_refs                     271673939                       # number of memory refs
system.cpu.num_load_insts                   157213791                       # Number of load instructions
system.cpu.num_store_insts                  114460148                       # Number of store instructions
system.cpu.num_idle_cycles                          0                       # Number of idle cycles
system.cpu.num_busy_cycles                 3462066707                       # Number of busy cycles
system.cpu.not_idle_fraction                        1                       # Percentage of non-idle cycles
system.cpu.idle_fraction                            0                       # Percentage of idle cycles
system.cpu.Branches                          69678400                       # Number of branches fetched
system.cpu.op_class::No_OpClass                202234      0.02%      0.02% # Class of executed instruction
system.cpu.op_class::IntAlu                 550028817     66.80%     66.83% # Class of executed instruction
system.cpu.op_class::IntMult                   125092      0.02%     66.84% # Class of executed instruction
system.cpu.op_class::IntDiv                   1153479      0.14%     66.98% # Class of executed instruction
system.cpu.op_class::FloatAdd                  183131      0.02%     67.00% # Class of executed instruction
system.cpu.op_class::FloatCmp                       0      0.00%     67.00% # Class of executed instruction
system.cpu.op_class::FloatCvt                       0      0.00%     67.00% # Class of executed instruction
system.cpu.op_class::FloatMult                      0      0.00%     67.00% # Class of executed instruction
system.cpu.op_class::FloatDiv                       0      0.00%     67.00% # Class of executed instruction
system.cpu.op_class::FloatSqrt                      0      0.00%     67.00% # Class of executed instruction
system.cpu.op_class::SimdAdd                        0      0.00%     67.00% # Class of executed instruction
system.cpu.op_class::SimdAddAcc                     0      0.00%     67.00% # Class of executed instruction
system.cpu.op_class::SimdAlu                        0      0.00%     67.00% # Class of executed instruction
system.cpu.op_class::SimdCmp                        0      0.00%     67.00% # Class of executed instruction
system.cpu.op_class::SimdCvt                        0      0.00%     67.00% # Class of executed instruction
system.cpu.op_class::SimdMisc                       0      0.00%     67.00% # Class of executed instruction
system.cpu.op_class::SimdMult                       0      0.00%     67.00% # Class of executed instruction
system.cpu.op_class::SimdMultAcc                    0      0.00%     67.00% # Class of executed instruction
system.cpu.op_class::SimdShift                      0      0.00%     67.00% # Class of executed instruction
system.cpu.op_class::SimdShiftAcc                   0      0.00%     67.00% # Class of executed instruction
system.cpu.op_class::SimdSqrt                       0      0.00%     67.00% # Class of executed instruction
system.cpu.op_class::SimdFloatAdd                   0      0.00%     67.00% # Class of executed instruction
system.cpu.op_class::SimdFloatAlu                   0      0.00%     67.00% # Class of executed instruction
system.cpu.op_class::SimdFloatCmp                   0      0.00%     67.00% # Class of executed instruction
system.cpu.op_class::SimdFloatCvt                   0      0.00%     67.00% # Class of executed instruction
system.cpu.op_class::SimdFloatDiv                   0      0.00%     67.00% # Class of executed instruction
system.cpu.op_class::SimdFloatMisc                  0      0.00%     67.00% # Class of executed instruction
system.cpu.op_class::SimdFloatMult                  0      0.00%     67.00% # Class of executed instruction
system.cpu.op_class::SimdFloatMultAcc               0      0.00%     67.00% # Class of executed instruction
system.cpu.op_class::SimdFloatSqrt                  0      0.00%     67.00% # Class of executed instruction
system.cpu.op_class::MemRead                157213791     19.09%     86.10% # Class of executed instruction
system.cpu.op_class::MemWrite               114460148     13.90%    100.00% # Class of executed instruction
system.cpu.op_class::IprAccess                      0      0.00%    100.00% # Class of executed instruction
system.cpu.op_class::InstPrefetch                   0      0.00%    100.00% # Class of executed instruction
system.cpu.op_class::total                  823366692                       # Class of executed instruction
system.cpu.dcache.tags.pwrStateResidencyTicks::UNDEFINED 1731033353500                       # Cumulative time (in ticks) in various power states
system.cpu.dcache.tags.replacements           8978157                       # number of replacements
system.cpu.dcache.tags.tagsinuse          1023.499838                       # Cycle average of tags in use
system.cpu.dcache.tags.total_refs           262695362                       # Total number of references to valid blocks.
system.cpu.dcache.tags.sampled_refs           8979181                       # Sample count of references to valid blocks.
system.cpu.dcache.tags.avg_refs             29.256049                       # Average number of references to valid blocks.
system.cpu.dcache.tags.warmup_cycle        7507264500                       # Cycle when the warmup percentage was hit.
system.cpu.dcache.tags.occ_blocks::cpu.data  1023.499838                       # Average occupied blocks per requestor
system.cpu.dcache.tags.occ_percent::cpu.data     0.999512                       # Average percentage of cache occupancy
system.cpu.dcache.tags.occ_percent::total     0.999512                       # Average percentage of cache occupancy
system.cpu.dcache.tags.occ_task_id_blocks::1024         1024                       # Occupied blocks per task id
system.cpu.dcache.tags.age_task_id_blocks_1024::0            1                       # Occupied blocks per task id
system.cpu.dcache.tags.age_task_id_blocks_1024::1           43                       # Occupied blocks per task id
system.cpu.dcache.tags.age_task_id_blocks_1024::2          146                       # Occupied blocks per task id
system.cpu.dcache.tags.age_task_id_blocks_1024::3          520                       # Occupied blocks per task id
system.cpu.dcache.tags.age_task_id_blocks_1024::4          314                       # Occupied blocks per task id
system.cpu.dcache.tags.occ_task_id_percent::1024            1                       # Percentage of cache occupancy per task id
system.cpu.dcache.tags.tag_accesses         280653724                       # Number of tag accesses
system.cpu.dcache.tags.data_accesses        280653724                       # Number of data accesses
system.cpu.dcache.pwrStateResidencyTicks::UNDEFINED 1731033353500                       # Cumulative time (in ticks) in various power states
system.cpu.dcache.ReadReq_hits::cpu.data    156696197                       # number of ReadReq hits
system.cpu.dcache.ReadReq_hits::total       156696197                       # number of ReadReq hits
system.cpu.dcache.WriteReq_hits::cpu.data    105999165                       # number of WriteReq hits
system.cpu.dcache.WriteReq_hits::total      105999165                       # number of WriteReq hits
system.cpu.dcache.demand_hits::cpu.data     262695362                       # number of demand (read+write) hits
system.cpu.dcache.demand_hits::total        262695362                       # number of demand (read+write) hits
system.cpu.dcache.overall_hits::cpu.data    262695362                       # number of overall hits
system.cpu.dcache.overall_hits::total       262695362                       # number of overall hits
system.cpu.dcache.ReadReq_misses::cpu.data       518186                       # number of ReadReq misses
system.cpu.dcache.ReadReq_misses::total        518186                       # number of ReadReq misses
system.cpu.dcache.WriteReq_misses::cpu.data      8460995                       # number of WriteReq misses
system.cpu.dcache.WriteReq_misses::total      8460995                       # number of WriteReq misses
system.cpu.dcache.demand_misses::cpu.data      8979181                       # number of demand (read+write) misses
system.cpu.dcache.demand_misses::total        8979181                       # number of demand (read+write) misses
system.cpu.dcache.overall_misses::cpu.data      8979181                       # number of overall misses
system.cpu.dcache.overall_misses::total       8979181                       # number of overall misses
system.cpu.dcache.ReadReq_miss_latency::cpu.data  32175501500                       # number of ReadReq miss cycles
system.cpu.dcache.ReadReq_miss_latency::total  32175501500                       # number of ReadReq miss cycles
system.cpu.dcache.WriteReq_miss_latency::cpu.data 743046970000                       # number of WriteReq miss cycles
system.cpu.dcache.WriteReq_miss_latency::total 743046970000                       # number of WriteReq miss cycles
system.cpu.dcache.demand_miss_latency::cpu.data 775222471500                       # number of demand (read+write) miss cycles
system.cpu.dcache.demand_miss_latency::total 775222471500                       # number of demand (read+write) miss cycles
system.cpu.dcache.overall_miss_latency::cpu.data 775222471500                       # number of overall miss cycles
system.cpu.dcache.overall_miss_latency::total 775222471500                       # number of overall miss cycles
system.cpu.dcache.ReadReq_accesses::cpu.data    157214383                       # number of ReadReq accesses(hits+misses)
system.cpu.dcache.ReadReq_accesses::total    157214383                       # number of ReadReq accesses(hits+misses)
system.cpu.dcache.WriteReq_accesses::cpu.data    114460160                       # number of WriteReq accesses(hits+misses)
system.cpu.dcache.WriteReq_accesses::total    114460160                       # number of WriteReq accesses(hits+misses)
system.cpu.dcache.demand_accesses::cpu.data    271674543                       # number of demand (read+write) accesses
system.cpu.dcache.demand_accesses::total    271674543                       # number of demand (read+write) accesses
system.cpu.dcache.overall_accesses::cpu.data    271674543                       # number of overall (read+write) accesses
system.cpu.dcache.overall_accesses::total    271674543                       # number of overall (read+write) accesses
system.cpu.dcache.ReadReq_miss_rate::cpu.data     0.003296                       # miss rate for ReadReq accesses
system.cpu.dcache.ReadReq_miss_rate::total     0.003296                       # miss rate for ReadReq accesses
system.cpu.dcache.WriteReq_miss_rate::cpu.data     0.073921                       # miss rate for WriteReq accesses
system.cpu.dcache.WriteReq_miss_rate::total     0.073921                       # miss rate for WriteReq accesses
system.cpu.dcache.demand_miss_rate::cpu.data     0.033051                       # miss rate for demand accesses
system.cpu.dcache.demand_miss_rate::total     0.033051                       # miss rate for demand accesses
system.cpu.dcache.overall_miss_rate::cpu.data     0.033051                       # miss rate for overall accesses
system.cpu.dcache.overall_miss_rate::total     0.033051                       # miss rate for overall accesses
system.cpu.dcache.ReadReq_avg_miss_latency::cpu.data 62092.571972                       # average ReadReq miss latency
system.cpu.dcache.ReadReq_avg_miss_latency::total 62092.571972                       # average ReadReq miss latency
system.cpu.dcache.WriteReq_avg_miss_latency::cpu.data 87820.282366                       # average WriteReq miss latency
system.cpu.dcache.WriteReq_avg_miss_latency::total 87820.282366                       # average WriteReq miss latency
system.cpu.dcache.demand_avg_miss_latency::cpu.data 86335.543464                       # average overall miss latency
system.cpu.dcache.demand_avg_miss_latency::total 86335.543464                       # average overall miss latency
system.cpu.dcache.overall_avg_miss_latency::cpu.data 86335.543464                       # average overall miss latency
system.cpu.dcache.overall_avg_miss_latency::total 86335.543464                       # average overall miss latency
system.cpu.dcache.blocked_cycles::no_mshrs            0                       # number of cycles access was blocked
system.cpu.dcache.blocked_cycles::no_targets            0                       # number of cycles access was blocked
system.cpu.dcache.blocked::no_mshrs                 0                       # number of cycles access was blocked
system.cpu.dcache.blocked::no_targets               0                       # number of cycles access was blocked
system.cpu.dcache.avg_blocked_cycles::no_mshrs          nan                       # average number of cycles each access was blocked
system.cpu.dcache.avg_blocked_cycles::no_targets          nan                       # average number of cycles each access was blocked
system.cpu.dcache.writebacks::writebacks      8728744                       # number of writebacks
system.cpu.dcache.writebacks::total           8728744                       # number of writebacks
system.cpu.dcache.ReadReq_mshr_misses::cpu.data       518186                       # number of ReadReq MSHR misses
system.cpu.dcache.ReadReq_mshr_misses::total       518186                       # number of ReadReq MSHR misses
system.cpu.dcache.WriteReq_mshr_misses::cpu.data      8460995                       # number of WriteReq MSHR misses
system.cpu.dcache.WriteReq_mshr_misses::total      8460995                       # number of WriteReq MSHR misses
system.cpu.dcache.demand_mshr_misses::cpu.data      8979181                       # number of demand (read+write) MSHR misses
system.cpu.dcache.demand_mshr_misses::total      8979181                       # number of demand (read+write) MSHR misses
system.cpu.dcache.overall_mshr_misses::cpu.data      8979181                       # number of overall MSHR misses
system.cpu.dcache.overall_mshr_misses::total      8979181                       # number of overall MSHR misses
system.cpu.dcache.ReadReq_mshr_miss_latency::cpu.data  31657315500                       # number of ReadReq MSHR miss cycles
system.cpu.dcache.ReadReq_mshr_miss_latency::total  31657315500                       # number of ReadReq MSHR miss cycles
system.cpu.dcache.WriteReq_mshr_miss_latency::cpu.data 734585975000                       # number of WriteReq MSHR miss cycles
system.cpu.dcache.WriteReq_mshr_miss_latency::total 734585975000                       # number of WriteReq MSHR miss cycles
system.cpu.dcache.demand_mshr_miss_latency::cpu.data 766243290500                       # number of demand (read+write) MSHR miss cycles
system.cpu.dcache.demand_mshr_miss_latency::total 766243290500                       # number of demand (read+write) MSHR miss cycles
system.cpu.dcache.overall_mshr_miss_latency::cpu.data 766243290500                       # number of overall MSHR miss cycles
system.cpu.dcache.overall_mshr_miss_latency::total 766243290500                       # number of overall MSHR miss cycles
system.cpu.dcache.ReadReq_mshr_miss_rate::cpu.data     0.003296                       # mshr miss rate for ReadReq accesses
system.cpu.dcache.ReadReq_mshr_miss_rate::total     0.003296                       # mshr miss rate for ReadReq accesses
system.cpu.dcache.WriteReq_mshr_miss_rate::cpu.data     0.073921                       # mshr miss rate for WriteReq accesses
system.cpu.dcache.WriteReq_mshr_miss_rate::total     0.073921                       # mshr miss rate for WriteReq accesses
system.cpu.dcache.demand_mshr_miss_rate::cpu.data     0.033051                       # mshr miss rate for demand accesses
system.cpu.dcache.demand_mshr_miss_rate::total     0.033051                       # mshr miss rate for demand accesses
system.cpu.dcache.overall_mshr_miss_rate::cpu.data     0.033051                       # mshr miss rate for overall accesses
system.cpu.dcache.overall_mshr_miss_rate::total     0.033051                       # mshr miss rate for overall accesses
system.cpu.dcache.ReadReq_avg_mshr_miss_latency::cpu.data 61092.571972                       # average ReadReq mshr miss latency
system.cpu.dcache.ReadReq_avg_mshr_miss_latency::total 61092.571972                       # average ReadReq mshr miss latency
system.cpu.dcache.WriteReq_avg_mshr_miss_latency::cpu.data 86820.282366                       # average WriteReq mshr miss latency
system.cpu.dcache.WriteReq_avg_mshr_miss_latency::total 86820.282366                       # average WriteReq mshr miss latency
system.cpu.dcache.demand_avg_mshr_miss_latency::cpu.data 85335.543464                       # average overall mshr miss latency
system.cpu.dcache.demand_avg_mshr_miss_latency::total 85335.543464                       # average overall mshr miss latency
system.cpu.dcache.overall_avg_mshr_miss_latency::cpu.data 85335.543464                       # average overall mshr miss latency
system.cpu.dcache.overall_avg_mshr_miss_latency::total 85335.543464                       # average overall mshr miss latency
system.cpu.dtb_walker_cache.tags.pwrStateResidencyTicks::UNDEFINED 1731033353500                       # Cumulative time (in ticks) in various power states
system.cpu.dtb_walker_cache.tags.replacements            0                       # number of replacements
system.cpu.dtb_walker_cache.tags.tagsinuse            0                       # Cycle average of tags in use
system.cpu.dtb_walker_cache.tags.total_refs            0                       # Total number of references to valid blocks.
system.cpu.dtb_walker_cache.tags.sampled_refs            0                       # Sample count of references to valid blocks.
system.cpu.dtb_walker_cache.tags.avg_refs          nan                       # Average number of references to valid blocks.
system.cpu.dtb_walker_cache.tags.warmup_cycle            0                       # Cycle when the warmup percentage was hit.
system.cpu.dtb_walker_cache.tags.tag_accesses            0                       # Number of tag accesses
system.cpu.dtb_walker_cache.tags.data_accesses            0                       # Number of data accesses
system.cpu.dtb_walker_cache.pwrStateResidencyTicks::UNDEFINED 1731033353500                       # Cumulative time (in ticks) in various power states
system.cpu.dtb_walker_cache.blocked_cycles::no_mshrs            0                       # number of cycles access was blocked
system.cpu.dtb_walker_cache.blocked_cycles::no_targets            0                       # number of cycles access was blocked
system.cpu.dtb_walker_cache.blocked::no_mshrs            0                       # number of cycles access was blocked
system.cpu.dtb_walker_cache.blocked::no_targets            0                       # number of cycles access was blocked
system.cpu.dtb_walker_cache.avg_blocked_cycles::no_mshrs          nan                       # average number of cycles each access was blocked
system.cpu.dtb_walker_cache.avg_blocked_cycles::no_targets          nan                       # average number of cycles each access was blocked
system.cpu.icache.tags.pwrStateResidencyTicks::UNDEFINED 1731033353500                       # Cumulative time (in ticks) in various power states
system.cpu.icache.tags.replacements           1460054                       # number of replacements
system.cpu.icache.tags.tagsinuse           677.642085                       # Cycle average of tags in use
system.cpu.icache.tags.total_refs           673892693                       # Total number of references to valid blocks.
system.cpu.icache.tags.sampled_refs           1460964                       # Sample count of references to valid blocks.
system.cpu.icache.tags.avg_refs            461.265776                       # Average number of references to valid blocks.
system.cpu.icache.tags.warmup_cycle                 0                       # Cycle when the warmup percentage was hit.
system.cpu.icache.tags.occ_blocks::cpu.inst   677.642085                       # Average occupied blocks per requestor
system.cpu.icache.tags.occ_percent::cpu.inst     0.661760                       # Average percentage of cache occupancy
system.cpu.icache.tags.occ_percent::total     0.661760                       # Average percentage of cache occupancy
system.cpu.icache.tags.occ_task_id_blocks::1024          910                       # Occupied blocks per task id
system.cpu.icache.tags.age_task_id_blocks_1024::0            8                       # Occupied blocks per task id
system.cpu.icache.tags.age_task_id_blocks_1024::1           50                       # Occupied blocks per task id
system.cpu.icache.tags.age_task_id_blocks_1024::2           19                       # Occupied blocks per task id
system.cpu.icache.tags.age_task_id_blocks_1024::3           20                       # Occupied blocks per task id
system.cpu.icache.tags.age_task_id_blocks_1024::4          813                       # Occupied blocks per task id
system.cpu.icache.tags.occ_task_id_percent::1024     0.888672                       # Percentage of cache occupancy per task id
system.cpu.icache.tags.tag_accesses         676814621                       # Number of tag accesses
system.cpu.icache.tags.data_accesses        676814621                       # Number of data accesses
system.cpu.icache.pwrStateResidencyTicks::UNDEFINED 1731033353500                       # Cumulative time (in ticks) in various power states
system.cpu.icache.ReadReq_hits::cpu.inst    673892693                       # number of ReadReq hits
system.cpu.icache.ReadReq_hits::total       673892693                       # number of ReadReq hits
system.cpu.icache.demand_hits::cpu.inst     673892693                       # number of demand (read+write) hits
system.cpu.icache.demand_hits::total        673892693                       # number of demand (read+write) hits
system.cpu.icache.overall_hits::cpu.inst    673892693                       # number of overall hits
system.cpu.icache.overall_hits::total       673892693                       # number of overall hits
system.cpu.icache.ReadReq_misses::cpu.inst      1460964                       # number of ReadReq misses
system.cpu.icache.ReadReq_misses::total       1460964                       # number of ReadReq misses
system.cpu.icache.demand_misses::cpu.inst      1460964                       # number of demand (read+write) misses
system.cpu.icache.demand_misses::total        1460964                       # number of demand (read+write) misses
system.cpu.icache.overall_misses::cpu.inst      1460964                       # number of overall misses
system.cpu.icache.overall_misses::total       1460964                       # number of overall misses
system.cpu.icache.ReadReq_miss_latency::cpu.inst  19223238000                       # number of ReadReq miss cycles
system.cpu.icache.ReadReq_miss_latency::total  19223238000                       # number of ReadReq miss cycles
system.cpu.icache.demand_miss_latency::cpu.inst  19223238000                       # number of demand (read+write) miss cycles
system.cpu.icache.demand_miss_latency::total  19223238000                       # number of demand (read+write) miss cycles
system.cpu.icache.overall_miss_latency::cpu.inst  19223238000                       # number of overall miss cycles
system.cpu.icache.overall_miss_latency::total  19223238000                       # number of overall miss cycles
system.cpu.icache.ReadReq_accesses::cpu.inst    675353657                       # number of ReadReq accesses(hits+misses)
system.cpu.icache.ReadReq_accesses::total    675353657                       # number of ReadReq accesses(hits+misses)
system.cpu.icache.demand_accesses::cpu.inst    675353657                       # number of demand (read+write) accesses
system.cpu.icache.demand_accesses::total    675353657                       # number of demand (read+write) accesses
system.cpu.icache.overall_accesses::cpu.inst    675353657                       # number of overall (read+write) accesses
system.cpu.icache.overall_accesses::total    675353657                       # number of overall (read+write) accesses
system.cpu.icache.ReadReq_miss_rate::cpu.inst     0.002163                       # miss rate for ReadReq accesses
system.cpu.icache.ReadReq_miss_rate::total     0.002163                       # miss rate for ReadReq accesses
system.cpu.icache.demand_miss_rate::cpu.inst     0.002163                       # miss rate for demand accesses
system.cpu.icache.demand_miss_rate::total     0.002163                       # miss rate for demand accesses
system.cpu.icache.overall_miss_rate::cpu.inst     0.002163                       # miss rate for overall accesses
system.cpu.icache.overall_miss_rate::total     0.002163                       # miss rate for overall accesses
system.cpu.icache.ReadReq_avg_miss_latency::cpu.inst 13157.913542                       # average ReadReq miss latency
system.cpu.icache.ReadReq_avg_miss_latency::total 13157.913542                       # average ReadReq miss latency
system.cpu.icache.demand_avg_miss_latency::cpu.inst 13157.913542                       # average overall miss latency
system.cpu.icache.demand_avg_miss_latency::total 13157.913542                       # average overall miss latency
system.cpu.icache.overall_avg_miss_latency::cpu.inst 13157.913542                       # average overall miss latency
system.cpu.icache.overall_avg_miss_latency::total 13157.913542                       # average overall miss latency
system.cpu.icache.blocked_cycles::no_mshrs            0                       # number of cycles access was blocked
system.cpu.icache.blocked_cycles::no_targets            0                       # number of cycles access was blocked
system.cpu.icache.blocked::no_mshrs                 0                       # number of cycles access was blocked
system.cpu.icache.blocked::no_targets               0                       # number of cycles access was blocked
system.cpu.icache.avg_blocked_cycles::no_mshrs          nan                       # average number of cycles each access was blocked
system.cpu.icache.avg_blocked_cycles::no_targets          nan                       # average number of cycles each access was blocked
system.cpu.icache.writebacks::writebacks      1460054                       # number of writebacks
system.cpu.icache.writebacks::total           1460054                       # number of writebacks
system.cpu.icache.ReadReq_mshr_misses::cpu.inst      1460964                       # number of ReadReq MSHR misses
system.cpu.icache.ReadReq_mshr_misses::total      1460964                       # number of ReadReq MSHR misses
system.cpu.icache.demand_mshr_misses::cpu.inst      1460964                       # number of demand (read+write) MSHR misses
system.cpu.icache.demand_mshr_misses::total      1460964                       # number of demand (read+write) MSHR misses
system.cpu.icache.overall_mshr_misses::cpu.inst      1460964                       # number of overall MSHR misses
system.cpu.icache.overall_mshr_misses::total      1460964                       # number of overall MSHR misses
system.cpu.icache.ReadReq_mshr_miss_latency::cpu.inst  17762274000                       # number of ReadReq MSHR miss cycles
system.cpu.icache.ReadReq_mshr_miss_latency::total  17762274000                       # number of ReadReq MSHR miss cycles
system.cpu.icache.demand_mshr_miss_latency::cpu.inst  17762274000                       # number of demand (read+write) MSHR miss cycles
system.cpu.icache.demand_mshr_miss_latency::total  17762274000                       # number of demand (read+write) MSHR miss cycles
system.cpu.icache.overall_mshr_miss_latency::cpu.inst  17762274000                       # number of overall MSHR miss cycles
system.cpu.icache.overall_mshr_miss_latency::total  17762274000                       # number of overall MSHR miss cycles
system.cpu.icache.ReadReq_mshr_miss_rate::cpu.inst     0.002163                       # mshr miss rate for ReadReq accesses
system.cpu.icache.ReadReq_mshr_miss_rate::total     0.002163                       # mshr miss rate for ReadReq accesses
system.cpu.icache.demand_mshr_miss_rate::cpu.inst     0.002163                       # mshr miss rate for demand accesses
system.cpu.icache.demand_mshr_miss_rate::total     0.002163                       # mshr miss rate for demand accesses
system.cpu.icache.overall_mshr_miss_rate::cpu.inst     0.002163                       # mshr miss rate for overall accesses
system.cpu.icache.overall_mshr_miss_rate::total     0.002163                       # mshr miss rate for overall accesses
system.cpu.icache.ReadReq_avg_mshr_miss_latency::cpu.inst 12157.913542                       # average ReadReq mshr miss latency
system.cpu.icache.ReadReq_avg_mshr_miss_latency::total 12157.913542                       # average ReadReq mshr miss latency
system.cpu.icache.demand_avg_mshr_miss_latency::cpu.inst 12157.913542                       # average overall mshr miss latency
system.cpu.icache.demand_avg_mshr_miss_latency::total 12157.913542                       # average overall mshr miss latency
system.cpu.icache.overall_avg_mshr_miss_latency::cpu.inst 12157.913542                       # average overall mshr miss latency
system.cpu.icache.overall_avg_mshr_miss_latency::total 12157.913542                       # average overall mshr miss latency
system.cpu.itb_walker_cache.tags.pwrStateResidencyTicks::UNDEFINED 1731033353500                       # Cumulative time (in ticks) in various power states
system.cpu.itb_walker_cache.tags.replacements            0                       # number of replacements
system.cpu.itb_walker_cache.tags.tagsinuse            0                       # Cycle average of tags in use
system.cpu.itb_walker_cache.tags.total_refs            0                       # Total number of references to valid blocks.
system.cpu.itb_walker_cache.tags.sampled_refs            0                       # Sample count of references to valid blocks.
system.cpu.itb_walker_cache.tags.avg_refs          nan                       # Average number of references to valid blocks.
system.cpu.itb_walker_cache.tags.warmup_cycle            0                       # Cycle when the warmup percentage was hit.
system.cpu.itb_walker_cache.tags.tag_accesses            0                       # Number of tag accesses
system.cpu.itb_walker_cache.tags.data_accesses            0                       # Number of data accesses
system.cpu.itb_walker_cache.pwrStateResidencyTicks::UNDEFINED 1731033353500                       # Cumulative time (in ticks) in various power states
system.cpu.itb_walker_cache.blocked_cycles::no_mshrs            0                       # number of cycles access was blocked
system.cpu.itb_walker_cache.blocked_cycles::no_targets            0                       # number of cycles access was blocked
system.cpu.itb_walker_cache.blocked::no_mshrs            0                       # number of cycles access was blocked
system.cpu.itb_walker_cache.blocked::no_targets            0                       # number of cycles access was blocked
system.cpu.itb_walker_cache.avg_blocked_cycles::no_mshrs          nan                       # average number of cycles each access was blocked
system.cpu.itb_walker_cache.avg_blocked_cycles::no_targets          nan                       # average number of cycles each access was blocked
system.l2.tags.pwrStateResidencyTicks::UNDEFINED 1731033353500                       # Cumulative time (in ticks) in various power states
system.l2.tags.replacements                   8360728                       # number of replacements
system.l2.tags.tagsinuse                 16313.851336                       # Cycle average of tags in use
system.l2.tags.total_refs                    12501243                       # Total number of references to valid blocks.
system.l2.tags.sampled_refs                   8377112                       # Sample count of references to valid blocks.
system.l2.tags.avg_refs                      1.492309                       # Average number of references to valid blocks.
system.l2.tags.warmup_cycle                9439026000                       # Cycle when the warmup percentage was hit.
system.l2.tags.occ_blocks::writebacks       88.767233                       # Average occupied blocks per requestor
system.l2.tags.occ_blocks::cpu.inst        194.214121                       # Average occupied blocks per requestor
system.l2.tags.occ_blocks::cpu.data      16030.869981                       # Average occupied blocks per requestor
system.l2.tags.occ_percent::writebacks       0.005418                       # Average percentage of cache occupancy
system.l2.tags.occ_percent::cpu.inst         0.011854                       # Average percentage of cache occupancy
system.l2.tags.occ_percent::cpu.data         0.978447                       # Average percentage of cache occupancy
system.l2.tags.occ_percent::total            0.995718                       # Average percentage of cache occupancy
system.l2.tags.occ_task_id_blocks::1024         16384                       # Occupied blocks per task id
system.l2.tags.age_task_id_blocks_1024::1            6                       # Occupied blocks per task id
system.l2.tags.age_task_id_blocks_1024::2           83                       # Occupied blocks per task id
system.l2.tags.age_task_id_blocks_1024::3          868                       # Occupied blocks per task id
system.l2.tags.age_task_id_blocks_1024::4        15427                       # Occupied blocks per task id
system.l2.tags.occ_task_id_percent::1024            1                       # Percentage of cache occupancy per task id
system.l2.tags.tag_accesses                  91890532                       # Number of tag accesses
system.l2.tags.data_accesses                 91890532                       # Number of data accesses
system.l2.pwrStateResidencyTicks::UNDEFINED 1731033353500                       # Cumulative time (in ticks) in various power states
system.l2.WritebackDirty_hits::writebacks      8728744                       # number of WritebackDirty hits
system.l2.WritebackDirty_hits::total          8728744                       # number of WritebackDirty hits
system.l2.WritebackClean_hits::writebacks      1460054                       # number of WritebackClean hits
system.l2.WritebackClean_hits::total          1460054                       # number of WritebackClean hits
system.l2.ReadExReq_hits::cpu.data             166282                       # number of ReadExReq hits
system.l2.ReadExReq_hits::total                166282                       # number of ReadExReq hits
system.l2.ReadCleanReq_hits::cpu.inst         1458999                       # number of ReadCleanReq hits
system.l2.ReadCleanReq_hits::total            1458999                       # number of ReadCleanReq hits
system.l2.ReadSharedReq_hits::cpu.data         438546                       # number of ReadSharedReq hits
system.l2.ReadSharedReq_hits::total            438546                       # number of ReadSharedReq hits
system.l2.demand_hits::cpu.inst               1458999                       # number of demand (read+write) hits
system.l2.demand_hits::cpu.data                604828                       # number of demand (read+write) hits
system.l2.demand_hits::total                  2063827                       # number of demand (read+write) hits
system.l2.overall_hits::cpu.inst              1458999                       # number of overall hits
system.l2.overall_hits::cpu.data               604828                       # number of overall hits
system.l2.overall_hits::total                 2063827                       # number of overall hits
system.l2.ReadExReq_misses::cpu.data          8294713                       # number of ReadExReq misses
system.l2.ReadExReq_misses::total             8294713                       # number of ReadExReq misses
system.l2.ReadCleanReq_misses::cpu.inst          1965                       # number of ReadCleanReq misses
system.l2.ReadCleanReq_misses::total             1965                       # number of ReadCleanReq misses
system.l2.ReadSharedReq_misses::cpu.data        79640                       # number of ReadSharedReq misses
system.l2.ReadSharedReq_misses::total           79640                       # number of ReadSharedReq misses
system.l2.demand_misses::cpu.inst                1965                       # number of demand (read+write) misses
system.l2.demand_misses::cpu.data             8374353                       # number of demand (read+write) misses
system.l2.demand_misses::total                8376318                       # number of demand (read+write) misses
system.l2.overall_misses::cpu.inst               1965                       # number of overall misses
system.l2.overall_misses::cpu.data            8374353                       # number of overall misses
system.l2.overall_misses::total               8376318                       # number of overall misses
system.l2.ReadExReq_miss_latency::cpu.data 720148399000                       # number of ReadExReq miss cycles
system.l2.ReadExReq_miss_latency::total  720148399000                       # number of ReadExReq miss cycles
system.l2.ReadCleanReq_miss_latency::cpu.inst    238935500                       # number of ReadCleanReq miss cycles
system.l2.ReadCleanReq_miss_latency::total    238935500                       # number of ReadCleanReq miss cycles
system.l2.ReadSharedReq_miss_latency::cpu.data  26273828500                       # number of ReadSharedReq miss cycles
system.l2.ReadSharedReq_miss_latency::total  26273828500                       # number of ReadSharedReq miss cycles
system.l2.demand_miss_latency::cpu.inst     238935500                       # number of demand (read+write) miss cycles
system.l2.demand_miss_latency::cpu.data  746422227500                       # number of demand (read+write) miss cycles
system.l2.demand_miss_latency::total     746661163000                       # number of demand (read+write) miss cycles
system.l2.overall_miss_latency::cpu.inst    238935500                       # number of overall miss cycles
system.l2.overall_miss_latency::cpu.data 746422227500                       # number of overall miss cycles
system.l2.overall_miss_latency::total    746661163000                       # number of overall miss cycles
system.l2.WritebackDirty_accesses::writebacks      8728744                       # number of WritebackDirty accesses(hits+misses)
system.l2.WritebackDirty_accesses::total      8728744                       # number of WritebackDirty accesses(hits+misses)
system.l2.WritebackClean_accesses::writebacks      1460054                       # number of WritebackClean accesses(hits+misses)
system.l2.WritebackClean_accesses::total      1460054                       # number of WritebackClean accesses(hits+misses)
system.l2.ReadExReq_accesses::cpu.data        8460995                       # number of ReadExReq accesses(hits+misses)
system.l2.ReadExReq_accesses::total           8460995                       # number of ReadExReq accesses(hits+misses)
system.l2.ReadCleanReq_accesses::cpu.inst      1460964                       # number of ReadCleanReq accesses(hits+misses)
system.l2.ReadCleanReq_accesses::total        1460964                       # number of ReadCleanReq accesses(hits+misses)
system.l2.ReadSharedReq_accesses::cpu.data       518186                       # number of ReadSharedReq accesses(hits+misses)
system.l2.ReadSharedReq_accesses::total        518186                       # number of ReadSharedReq accesses(hits+misses)
system.l2.demand_accesses::cpu.inst           1460964                       # number of demand (read+write) accesses
system.l2.demand_accesses::cpu.data           8979181                       # number of demand (read+write) accesses
system.l2.demand_accesses::total             10440145                       # number of demand (read+write) accesses
system.l2.overall_accesses::cpu.inst          1460964                       # number of overall (read+write) accesses
system.l2.overall_accesses::cpu.data          8979181                       # number of overall (read+write) accesses
system.l2.overall_accesses::total            10440145                       # number of overall (read+write) accesses
system.l2.ReadExReq_miss_rate::cpu.data      0.980347                       # miss rate for ReadExReq accesses
system.l2.ReadExReq_miss_rate::total         0.980347                       # miss rate for ReadExReq accesses
system.l2.ReadCleanReq_miss_rate::cpu.inst     0.001345                       # miss rate for ReadCleanReq accesses
system.l2.ReadCleanReq_miss_rate::total      0.001345                       # miss rate for ReadCleanReq accesses
system.l2.ReadSharedReq_miss_rate::cpu.data     0.153690                       # miss rate for ReadSharedReq accesses
system.l2.ReadSharedReq_miss_rate::total     0.153690                       # miss rate for ReadSharedReq accesses
system.l2.demand_miss_rate::cpu.inst         0.001345                       # miss rate for demand accesses
system.l2.demand_miss_rate::cpu.data         0.932641                       # miss rate for demand accesses
system.l2.demand_miss_rate::total            0.802318                       # miss rate for demand accesses
system.l2.overall_miss_rate::cpu.inst        0.001345                       # miss rate for overall accesses
system.l2.overall_miss_rate::cpu.data        0.932641                       # miss rate for overall accesses
system.l2.overall_miss_rate::total           0.802318                       # miss rate for overall accesses
system.l2.ReadExReq_avg_miss_latency::cpu.data 86820.170752                       # average ReadExReq miss latency
system.l2.ReadExReq_avg_miss_latency::total 86820.170752                       # average ReadExReq miss latency
system.l2.ReadCleanReq_avg_miss_latency::cpu.inst 121595.674300                       # average ReadCleanReq miss latency
system.l2.ReadCleanReq_avg_miss_latency::total 121595.674300                       # average ReadCleanReq miss latency
system.l2.ReadSharedReq_avg_miss_latency::cpu.data 329907.439729                       # average ReadSharedReq miss latency
system.l2.ReadSharedReq_avg_miss_latency::total 329907.439729                       # average ReadSharedReq miss latency
system.l2.demand_avg_miss_latency::cpu.inst 121595.674300                       # average overall miss latency
system.l2.demand_avg_miss_latency::cpu.data 89131.927864                       # average overall miss latency
system.l2.demand_avg_miss_latency::total 89139.543532                       # average overall miss latency
system.l2.overall_avg_miss_latency::cpu.inst 121595.674300                       # average overall miss latency
system.l2.overall_avg_miss_latency::cpu.data 89131.927864                       # average overall miss latency
system.l2.overall_avg_miss_latency::total 89139.543532                       # average overall miss latency
system.l2.blocked_cycles::no_mshrs                  0                       # number of cycles access was blocked
system.l2.blocked_cycles::no_targets                0                       # number of cycles access was blocked
system.l2.blocked::no_mshrs                         0                       # number of cycles access was blocked
system.l2.blocked::no_targets                       0                       # number of cycles access was blocked
system.l2.avg_blocked_cycles::no_mshrs            nan                       # average number of cycles each access was blocked
system.l2.avg_blocked_cycles::no_targets          nan                       # average number of cycles each access was blocked
system.l2.writebacks::writebacks              8345261                       # number of writebacks
system.l2.writebacks::total                   8345261                       # number of writebacks
system.l2.ReadExReq_mshr_misses::cpu.data      8294713                       # number of ReadExReq MSHR misses
system.l2.ReadExReq_mshr_misses::total        8294713                       # number of ReadExReq MSHR misses
system.l2.ReadCleanReq_mshr_misses::cpu.inst         1965                       # number of ReadCleanReq MSHR misses
system.l2.ReadCleanReq_mshr_misses::total         1965                       # number of ReadCleanReq MSHR misses
system.l2.ReadSharedReq_mshr_misses::cpu.data        79640                       # number of ReadSharedReq MSHR misses
system.l2.ReadSharedReq_mshr_misses::total        79640                       # number of ReadSharedReq MSHR misses
system.l2.demand_mshr_misses::cpu.inst           1965                       # number of demand (read+write) MSHR misses
system.l2.demand_mshr_misses::cpu.data        8374353                       # number of demand (read+write) MSHR misses
system.l2.demand_mshr_misses::total           8376318                       # number of demand (read+write) MSHR misses
system.l2.overall_mshr_misses::cpu.inst          1965                       # number of overall MSHR misses
system.l2.overall_mshr_misses::cpu.data       8374353                       # number of overall MSHR misses
system.l2.overall_mshr_misses::total          8376318                       # number of overall MSHR misses
system.l2.ReadExReq_mshr_miss_latency::cpu.data 637201269000                       # number of ReadExReq MSHR miss cycles
system.l2.ReadExReq_mshr_miss_latency::total 637201269000                       # number of ReadExReq MSHR miss cycles
system.l2.ReadCleanReq_mshr_miss_latency::cpu.inst    219285500                       # number of ReadCleanReq MSHR miss cycles
system.l2.ReadCleanReq_mshr_miss_latency::total    219285500                       # number of ReadCleanReq MSHR miss cycles
system.l2.ReadSharedReq_mshr_miss_latency::cpu.data  25477428500                       # number of ReadSharedReq MSHR miss cycles
system.l2.ReadSharedReq_mshr_miss_latency::total  25477428500                       # number of ReadSharedReq MSHR miss cycles
system.l2.demand_mshr_miss_latency::cpu.inst    219285500                       # number of demand (read+write) MSHR miss cycles
system.l2.demand_mshr_miss_latency::cpu.data 662678697500                       # number of demand (read+write) MSHR miss cycles
system.l2.demand_mshr_miss_latency::total 662897983000                       # number of demand (read+write) MSHR miss cycles
system.l2.overall_mshr_miss_latency::cpu.inst    219285500                       # number of overall MSHR miss cycles
system.l2.overall_mshr_miss_latency::cpu.data 662678697500                       # number of overall MSHR miss cycles
system.l2.overall_mshr_miss_latency::total 662897983000                       # number of overall MSHR miss cycles
system.l2.ReadExReq_mshr_miss_rate::cpu.data     0.980347                       # mshr miss rate for ReadExReq accesses
system.l2.ReadExReq_mshr_miss_rate::total     0.980347                       # mshr miss rate for ReadExReq accesses
system.l2.ReadCleanReq_mshr_miss_rate::cpu.inst     0.001345                       # mshr miss rate for ReadCleanReq accesses
system.l2.ReadCleanReq_mshr_miss_rate::total     0.001345                       # mshr miss rate for ReadCleanReq accesses
system.l2.ReadSharedReq_mshr_miss_rate::cpu.data     0.153690                       # mshr miss rate for ReadSharedReq accesses
system.l2.ReadSharedReq_mshr_miss_rate::total     0.153690                       # mshr miss rate for ReadSharedReq accesses
system.l2.demand_mshr_miss_rate::cpu.inst     0.001345                       # mshr miss rate for demand accesses
system.l2.demand_mshr_miss_rate::cpu.data     0.932641                       # mshr miss rate for demand accesses
system.l2.demand_mshr_miss_rate::total       0.802318                       # mshr miss rate for demand accesses
system.l2.overall_mshr_miss_rate::cpu.inst     0.001345                       # mshr miss rate for overall accesses
system.l2.overall_mshr_miss_rate::cpu.data     0.932641                       # mshr miss rate for overall accesses
system.l2.overall_mshr_miss_rate::total      0.802318                       # mshr miss rate for overall accesses
system.l2.ReadExReq_avg_mshr_miss_latency::cpu.data 76820.170752                       # average ReadExReq mshr miss latency
system.l2.ReadExReq_avg_mshr_miss_latency::total 76820.170752                       # average ReadExReq mshr miss latency
system.l2.ReadCleanReq_avg_mshr_miss_latency::cpu.inst 111595.674300                       # average ReadCleanReq mshr miss latency
system.l2.ReadCleanReq_avg_mshr_miss_latency::total 111595.674300                       # average ReadCleanReq mshr miss latency
system.l2.ReadSharedReq_avg_mshr_miss_latency::cpu.data 319907.439729                       # average ReadSharedReq mshr miss latency
system.l2.ReadSharedReq_avg_mshr_miss_latency::total 319907.439729                       # average ReadSharedReq mshr miss latency
system.l2.demand_avg_mshr_miss_latency::cpu.inst 111595.674300                       # average overall mshr miss latency
system.l2.demand_avg_mshr_miss_latency::cpu.data 79131.927864                       # average overall mshr miss latency
system.l2.demand_avg_mshr_miss_latency::total 79139.543532                       # average overall mshr miss latency
system.l2.overall_avg_mshr_miss_latency::cpu.inst 111595.674300                       # average overall mshr miss latency
system.l2.overall_avg_mshr_miss_latency::cpu.data 79131.927864                       # average overall mshr miss latency
system.l2.overall_avg_mshr_miss_latency::total 79139.543532                       # average overall mshr miss latency
system.membus.snoop_filter.tot_requests      16735544                       # Total number of requests made to the snoop filter.
system.membus.snoop_filter.hit_single_requests      8359226                       # Number of requests hitting in the snoop filter with a single holder of the requested data.
system.membus.snoop_filter.hit_multi_requests            0                       # Number of requests hitting in the snoop filter with multiple (>1) holders of the requested data.
system.membus.snoop_filter.tot_snoops               0                       # Total number of snoops made to the snoop filter.
system.membus.snoop_filter.hit_single_snoops            0                       # Number of snoops hitting in the snoop filter with a single holder of the requested data.
system.membus.snoop_filter.hit_multi_snoops            0                       # Number of snoops hitting in the snoop filter with multiple (>1) holders of the requested data.
system.membus.pwrStateResidencyTicks::UNDEFINED 1731033353500                       # Cumulative time (in ticks) in various power states
system.membus.trans_dist::ReadResp              81605                       # Transaction distribution
system.membus.trans_dist::WritebackDirty      8345261                       # Transaction distribution
system.membus.trans_dist::CleanEvict            13965                       # Transaction distribution
system.membus.trans_dist::ReadExReq           8294713                       # Transaction distribution
system.membus.trans_dist::ReadExResp          8294713                       # Transaction distribution
system.membus.trans_dist::ReadSharedReq         81605                       # Transaction distribution
system.membus.pkt_count_system.l2.mem_side::system.mem_ctrls.port     25111862                       # Packet count per connected master and slave (bytes)
system.membus.pkt_count_system.l2.mem_side::total     25111862                       # Packet count per connected master and slave (bytes)
system.membus.pkt_count::total               25111862                       # Packet count per connected master and slave (bytes)
system.membus.pkt_size_system.l2.mem_side::system.mem_ctrls.port   1070181056                       # Cumulative packet size per connected master and slave (bytes)
system.membus.pkt_size_system.l2.mem_side::total   1070181056                       # Cumulative packet size per connected master and slave (bytes)
system.membus.pkt_size::total              1070181056                       # Cumulative packet size per connected master and slave (bytes)
system.membus.snoops                                0                       # Total snoops (count)
system.membus.snoopTraffic                          0                       # Total snoop traffic (bytes)
system.membus.snoop_fanout::samples           8376318                       # Request fanout histogram
system.membus.snoop_fanout::mean                    0                       # Request fanout histogram
system.membus.snoop_fanout::stdev                   0                       # Request fanout histogram
system.membus.snoop_fanout::underflows              0      0.00%      0.00% # Request fanout histogram
system.membus.snoop_fanout::0                 8376318    100.00%    100.00% # Request fanout histogram
system.membus.snoop_fanout::1                       0      0.00%    100.00% # Request fanout histogram
system.membus.snoop_fanout::overflows               0      0.00%    100.00% # Request fanout histogram
system.membus.snoop_fanout::min_value               0                       # Request fanout histogram
system.membus.snoop_fanout::max_value               0                       # Request fanout histogram
system.membus.snoop_fanout::total             8376318                       # Request fanout histogram
system.membus.reqLayer2.occupancy         50125807000                       # Layer occupancy (ticks)
system.membus.reqLayer2.utilization               2.9                       # Layer utilization (%)
system.membus.respLayer1.occupancy        44070971750                       # Layer occupancy (ticks)
system.membus.respLayer1.utilization              2.5                       # Layer utilization (%)
system.tol2bus.snoop_filter.tot_requests     20878356                       # Total number of requests made to the snoop filter.
system.tol2bus.snoop_filter.hit_single_requests     10438211                       # Number of requests hitting in the snoop filter with a single holder of the requested data.
system.tol2bus.snoop_filter.hit_multi_requests            1                       # Number of requests hitting in the snoop filter with multiple (>1) holders of the requested data.
system.tol2bus.snoop_filter.tot_snoops           1502                       # Total number of snoops made to the snoop filter.
system.tol2bus.snoop_filter.hit_single_snoops         1502                       # Number of snoops hitting in the snoop filter with a single holder of the requested data.
system.tol2bus.snoop_filter.hit_multi_snoops            0                       # Number of snoops hitting in the snoop filter with multiple (>1) holders of the requested data.
system.tol2bus.pwrStateResidencyTicks::UNDEFINED 1731033353500                       # Cumulative time (in ticks) in various power states
system.tol2bus.trans_dist::ReadResp           1979150                       # Transaction distribution
system.tol2bus.trans_dist::WritebackDirty     17074005                       # Transaction distribution
system.tol2bus.trans_dist::WritebackClean      1460054                       # Transaction distribution
system.tol2bus.trans_dist::CleanEvict          264880                       # Transaction distribution
system.tol2bus.trans_dist::ReadExReq          8460995                       # Transaction distribution
system.tol2bus.trans_dist::ReadExResp         8460995                       # Transaction distribution
system.tol2bus.trans_dist::ReadCleanReq       1460964                       # Transaction distribution
system.tol2bus.trans_dist::ReadSharedReq       518186                       # Transaction distribution
system.tol2bus.pkt_count_system.cpu.icache.mem_side::system.l2.cpu_side      4381982                       # Packet count per connected master and slave (bytes)
system.tol2bus.pkt_count_system.cpu.dcache.mem_side::system.l2.cpu_side     26936519                       # Packet count per connected master and slave (bytes)
system.tol2bus.pkt_count::total              31318501                       # Packet count per connected master and slave (bytes)
system.tol2bus.pkt_size_system.cpu.icache.mem_side::system.l2.cpu_side    186945152                       # Cumulative packet size per connected master and slave (bytes)
system.tol2bus.pkt_size_system.cpu.dcache.mem_side::system.l2.cpu_side   1133307200                       # Cumulative packet size per connected master and slave (bytes)
system.tol2bus.pkt_size::total             1320252352                       # Cumulative packet size per connected master and slave (bytes)
system.tol2bus.snoops                         8360728                       # Total snoops (count)
system.tol2bus.snoopTraffic                 534096704                       # Total snoop traffic (bytes)
system.tol2bus.snoop_fanout::samples         18800873                       # Request fanout histogram
system.tol2bus.snoop_fanout::mean            0.000080                       # Request fanout histogram
system.tol2bus.snoop_fanout::stdev           0.008941                       # Request fanout histogram
system.tol2bus.snoop_fanout::underflows             0      0.00%      0.00% # Request fanout histogram
system.tol2bus.snoop_fanout::0               18799370     99.99%     99.99% # Request fanout histogram
system.tol2bus.snoop_fanout::1                   1503      0.01%    100.00% # Request fanout histogram
system.tol2bus.snoop_fanout::2                      0      0.00%    100.00% # Request fanout histogram
system.tol2bus.snoop_fanout::3                      0      0.00%    100.00% # Request fanout histogram
system.tol2bus.snoop_fanout::4                      0      0.00%    100.00% # Request fanout histogram
system.tol2bus.snoop_fanout::overflows              0      0.00%    100.00% # Request fanout histogram
system.tol2bus.snoop_fanout::min_value              0                       # Request fanout histogram
system.tol2bus.snoop_fanout::max_value              1                       # Request fanout histogram
system.tol2bus.snoop_fanout::total           18800873                       # Request fanout histogram
system.tol2bus.reqLayer0.occupancy        20627976000                       # Layer occupancy (ticks)
system.tol2bus.reqLayer0.utilization              1.2                       # Layer utilization (%)
system.tol2bus.respLayer0.occupancy        2191446000                       # Layer occupancy (ticks)
system.tol2bus.respLayer0.utilization             0.1                       # Layer utilization (%)
system.tol2bus.respLayer1.occupancy       13468771500                       # Layer occupancy (ticks)
system.tol2bus.respLayer1.utilization             0.8                       # Layer utilization (%)

---------- End Simulation Statistics   ----------
