
---------- Begin Simulation Statistics ----------
sim_seconds                                  2.380403                       # Number of seconds simulated
sim_ticks                                2380403359500                       # Number of ticks simulated
final_tick                               2380403359500                       # Number of ticks from beginning of simulation (restored from checkpoints and never reset)
sim_freq                                 1000000000000                       # Frequency of simulated ticks
host_inst_rate                                 474216                       # Simulator instruction rate (inst/s)
host_op_rate                                   780907                       # Simulator op (including micro ops) rate (op/s)
host_tick_rate                             2257650032                       # Simulator tick rate (ticks/s)
host_mem_usage                                 669356                       # Number of bytes of host memory used
host_seconds                                  1054.37                       # Real time elapsed on the host
sim_insts                                   500000000                       # Number of instructions simulated
sim_ops                                     823366692                       # Number of ops (including micro ops) simulated
system.voltage_domain.voltage                       1                       # Voltage in Volts
system.clk_domain.clock                          1000                       # Clock period in ticks
system.mem_ctrls.pwrStateResidencyTicks::UNDEFINED 2380403359500                       # Cumulative time (in ticks) in various power states
system.mem_ctrls.bytes_read::cpu.inst           99712                       # Number of bytes read from this memory
system.mem_ctrls.bytes_read::cpu.data       533371520                       # Number of bytes read from this memory
system.mem_ctrls.bytes_read::total          533471232                       # Number of bytes read from this memory
system.mem_ctrls.bytes_inst_read::cpu.inst        99712                       # Number of instructions bytes read from this memory
system.mem_ctrls.bytes_inst_read::total         99712                       # Number of instructions bytes read from this memory
system.mem_ctrls.bytes_written::writebacks    531999968                       # Number of bytes written to this memory
system.mem_ctrls.bytes_written::total       531999968                       # Number of bytes written to this memory
system.mem_ctrls.num_reads::cpu.inst             3116                       # Number of read requests responded to by this memory
system.mem_ctrls.num_reads::cpu.data         16667860                       # Number of read requests responded to by this memory
system.mem_ctrls.num_reads::total            16670976                       # Number of read requests responded to by this memory
system.mem_ctrls.num_writes::writebacks      16624999                       # Number of write requests responded to by this memory
system.mem_ctrls.num_writes::total           16624999                       # Number of write requests responded to by this memory
system.mem_ctrls.bw_read::cpu.inst              41889                       # Total read bandwidth from this memory (bytes/s)
system.mem_ctrls.bw_read::cpu.data          224067706                       # Total read bandwidth from this memory (bytes/s)
system.mem_ctrls.bw_read::total             224109595                       # Total read bandwidth from this memory (bytes/s)
system.mem_ctrls.bw_inst_read::cpu.inst         41889                       # Instruction read bandwidth from this memory (bytes/s)
system.mem_ctrls.bw_inst_read::total            41889                       # Instruction read bandwidth from this memory (bytes/s)
system.mem_ctrls.bw_write::writebacks       223491521                       # Write bandwidth from this memory (bytes/s)
system.mem_ctrls.bw_write::total            223491521                       # Write bandwidth from this memory (bytes/s)
system.mem_ctrls.bw_total::writebacks       223491521                       # Total bandwidth to/from this memory (bytes/s)
system.mem_ctrls.bw_total::cpu.inst             41889                       # Total bandwidth to/from this memory (bytes/s)
system.mem_ctrls.bw_total::cpu.data         224067706                       # Total bandwidth to/from this memory (bytes/s)
system.mem_ctrls.bw_total::total            447601116                       # Total bandwidth to/from this memory (bytes/s)
system.mem_ctrls.readReqs                    16670976                       # Number of read requests accepted
system.mem_ctrls.writeReqs                   16624999                       # Number of write requests accepted
system.mem_ctrls.readBursts                  16670976                       # Number of DRAM read bursts, including those serviced by the write queue
system.mem_ctrls.writeBursts                 16624999                       # Number of DRAM write bursts, including those merged in the write queue
system.mem_ctrls.bytesReadDRAM             1066940608                       # Total number of bytes read from DRAM
system.mem_ctrls.bytesReadWrQ                    1856                       # Total number of bytes read from write queue
system.mem_ctrls.bytesWritten               534521152                       # Total number of bytes written to DRAM
system.mem_ctrls.bytesReadSys               533471232                       # Total read bytes from the system interface side
system.mem_ctrls.bytesWrittenSys            531999968                       # Total written bytes from the system interface side
system.mem_ctrls.servicedByWrQ                     29                       # Number of DRAM read bursts serviced by the write queue
system.mem_ctrls.mergedWrBursts               8273083                       # Number of DRAM write bursts merged with an existing one
system.mem_ctrls.neitherReadNorWriteReqs            0                       # Number of requests that are neither read nor write
system.mem_ctrls.perBankRdBursts::0           1041769                       # Per bank write bursts
system.mem_ctrls.perBankRdBursts::1           1041445                       # Per bank write bursts
system.mem_ctrls.perBankRdBursts::2           1041656                       # Per bank write bursts
system.mem_ctrls.perBankRdBursts::3           1042217                       # Per bank write bursts
system.mem_ctrls.perBankRdBursts::4           1042099                       # Per bank write bursts
system.mem_ctrls.perBankRdBursts::5           1042178                       # Per bank write bursts
system.mem_ctrls.perBankRdBursts::6           1041692                       # Per bank write bursts
system.mem_ctrls.perBankRdBursts::7           1041695                       # Per bank write bursts
system.mem_ctrls.perBankRdBursts::8           1041281                       # Per bank write bursts
system.mem_ctrls.perBankRdBursts::9           1041648                       # Per bank write bursts
system.mem_ctrls.perBankRdBursts::10          1041895                       # Per bank write bursts
system.mem_ctrls.perBankRdBursts::11          1042430                       # Per bank write bursts
system.mem_ctrls.perBankRdBursts::12          1042392                       # Per bank write bursts
system.mem_ctrls.perBankRdBursts::13          1042311                       # Per bank write bursts
system.mem_ctrls.perBankRdBursts::14          1042079                       # Per bank write bursts
system.mem_ctrls.perBankRdBursts::15          1042160                       # Per bank write bursts
system.mem_ctrls.perBankWrBursts::0            521887                       # Per bank write bursts
system.mem_ctrls.perBankWrBursts::1            521686                       # Per bank write bursts
system.mem_ctrls.perBankWrBursts::2            521940                       # Per bank write bursts
system.mem_ctrls.perBankWrBursts::3            522203                       # Per bank write bursts
system.mem_ctrls.perBankWrBursts::4            522023                       # Per bank write bursts
system.mem_ctrls.perBankWrBursts::5            522169                       # Per bank write bursts
system.mem_ctrls.perBankWrBursts::6            521819                       # Per bank write bursts
system.mem_ctrls.perBankWrBursts::7            521926                       # Per bank write bursts
system.mem_ctrls.perBankWrBursts::8            521738                       # Per bank write bursts
system.mem_ctrls.perBankWrBursts::9            521903                       # Per bank write bursts
system.mem_ctrls.perBankWrBursts::10           521975                       # Per bank write bursts
system.mem_ctrls.perBankWrBursts::11           522141                       # Per bank write bursts
system.mem_ctrls.perBankWrBursts::12           522199                       # Per bank write bursts
system.mem_ctrls.perBankWrBursts::13           522237                       # Per bank write bursts
system.mem_ctrls.perBankWrBursts::14           522033                       # Per bank write bursts
system.mem_ctrls.perBankWrBursts::15           522014                       # Per bank write bursts
system.mem_ctrls.numRdRetry                         0                       # Number of times read queue was full causing retry
system.mem_ctrls.numWrRetry                         0                       # Number of times write queue was full causing retry
system.mem_ctrls.totGap                  2380379444500                       # Total gap between requests
system.mem_ctrls.readPktSize::0                     0                       # Read request sizes (log2)
system.mem_ctrls.readPktSize::1                     0                       # Read request sizes (log2)
system.mem_ctrls.readPktSize::2                     0                       # Read request sizes (log2)
system.mem_ctrls.readPktSize::3                     0                       # Read request sizes (log2)
system.mem_ctrls.readPktSize::4                     0                       # Read request sizes (log2)
system.mem_ctrls.readPktSize::5              16670976                       # Read request sizes (log2)
system.mem_ctrls.readPktSize::6                     0                       # Read request sizes (log2)
system.mem_ctrls.writePktSize::0                    0                       # Write request sizes (log2)
system.mem_ctrls.writePktSize::1                    0                       # Write request sizes (log2)
system.mem_ctrls.writePktSize::2                    0                       # Write request sizes (log2)
system.mem_ctrls.writePktSize::3                    0                       # Write request sizes (log2)
system.mem_ctrls.writePktSize::4                    0                       # Write request sizes (log2)
system.mem_ctrls.writePktSize::5             16624999                       # Write request sizes (log2)
system.mem_ctrls.writePktSize::6                    0                       # Write request sizes (log2)
system.mem_ctrls.rdQLenPdf::0                16670946                       # What read queue length does an incoming req see
system.mem_ctrls.rdQLenPdf::1                       1                       # What read queue length does an incoming req see
system.mem_ctrls.rdQLenPdf::2                       0                       # What read queue length does an incoming req see
system.mem_ctrls.rdQLenPdf::3                       0                       # What read queue length does an incoming req see
system.mem_ctrls.rdQLenPdf::4                       0                       # What read queue length does an incoming req see
system.mem_ctrls.rdQLenPdf::5                       0                       # What read queue length does an incoming req see
system.mem_ctrls.rdQLenPdf::6                       0                       # What read queue length does an incoming req see
system.mem_ctrls.rdQLenPdf::7                       0                       # What read queue length does an incoming req see
system.mem_ctrls.rdQLenPdf::8                       0                       # What read queue length does an incoming req see
system.mem_ctrls.rdQLenPdf::9                       0                       # What read queue length does an incoming req see
system.mem_ctrls.rdQLenPdf::10                      0                       # What read queue length does an incoming req see
system.mem_ctrls.rdQLenPdf::11                      0                       # What read queue length does an incoming req see
system.mem_ctrls.rdQLenPdf::12                      0                       # What read queue length does an incoming req see
system.mem_ctrls.rdQLenPdf::13                      0                       # What read queue length does an incoming req see
system.mem_ctrls.rdQLenPdf::14                      0                       # What read queue length does an incoming req see
system.mem_ctrls.rdQLenPdf::15                      0                       # What read queue length does an incoming req see
system.mem_ctrls.rdQLenPdf::16                      0                       # What read queue length does an incoming req see
system.mem_ctrls.rdQLenPdf::17                      0                       # What read queue length does an incoming req see
system.mem_ctrls.rdQLenPdf::18                      0                       # What read queue length does an incoming req see
system.mem_ctrls.rdQLenPdf::19                      0                       # What read queue length does an incoming req see
system.mem_ctrls.rdQLenPdf::20                      0                       # What read queue length does an incoming req see
system.mem_ctrls.rdQLenPdf::21                      0                       # What read queue length does an incoming req see
system.mem_ctrls.rdQLenPdf::22                      0                       # What read queue length does an incoming req see
system.mem_ctrls.rdQLenPdf::23                      0                       # What read queue length does an incoming req see
system.mem_ctrls.rdQLenPdf::24                      0                       # What read queue length does an incoming req see
system.mem_ctrls.rdQLenPdf::25                      0                       # What read queue length does an incoming req see
system.mem_ctrls.rdQLenPdf::26                      0                       # What read queue length does an incoming req see
system.mem_ctrls.rdQLenPdf::27                      0                       # What read queue length does an incoming req see
system.mem_ctrls.rdQLenPdf::28                      0                       # What read queue length does an incoming req see
system.mem_ctrls.rdQLenPdf::29                      0                       # What read queue length does an incoming req see
system.mem_ctrls.rdQLenPdf::30                      0                       # What read queue length does an incoming req see
system.mem_ctrls.rdQLenPdf::31                      0                       # What read queue length does an incoming req see
system.mem_ctrls.wrQLenPdf::0                       1                       # What write queue length does an incoming req see
system.mem_ctrls.wrQLenPdf::1                       1                       # What write queue length does an incoming req see
system.mem_ctrls.wrQLenPdf::2                       1                       # What write queue length does an incoming req see
system.mem_ctrls.wrQLenPdf::3                       1                       # What write queue length does an incoming req see
system.mem_ctrls.wrQLenPdf::4                       1                       # What write queue length does an incoming req see
system.mem_ctrls.wrQLenPdf::5                       1                       # What write queue length does an incoming req see
system.mem_ctrls.wrQLenPdf::6                       1                       # What write queue length does an incoming req see
system.mem_ctrls.wrQLenPdf::7                       1                       # What write queue length does an incoming req see
system.mem_ctrls.wrQLenPdf::8                       1                       # What write queue length does an incoming req see
system.mem_ctrls.wrQLenPdf::9                       1                       # What write queue length does an incoming req see
system.mem_ctrls.wrQLenPdf::10                      1                       # What write queue length does an incoming req see
system.mem_ctrls.wrQLenPdf::11                      1                       # What write queue length does an incoming req see
system.mem_ctrls.wrQLenPdf::12                      1                       # What write queue length does an incoming req see
system.mem_ctrls.wrQLenPdf::13                      1                       # What write queue length does an incoming req see
system.mem_ctrls.wrQLenPdf::14                      1                       # What write queue length does an incoming req see
system.mem_ctrls.wrQLenPdf::15                   3854                       # What write queue length does an incoming req see
system.mem_ctrls.wrQLenPdf::16                   4648                       # What write queue length does an incoming req see
system.mem_ctrls.wrQLenPdf::17                 521423                       # What write queue length does an incoming req see
system.mem_ctrls.wrQLenPdf::18                 521461                       # What write queue length does an incoming req see
system.mem_ctrls.wrQLenPdf::19                 521461                       # What write queue length does an incoming req see
system.mem_ctrls.wrQLenPdf::20                 521463                       # What write queue length does an incoming req see
system.mem_ctrls.wrQLenPdf::21                 521462                       # What write queue length does an incoming req see
system.mem_ctrls.wrQLenPdf::22                 521462                       # What write queue length does an incoming req see
system.mem_ctrls.wrQLenPdf::23                 521462                       # What write queue length does an incoming req see
system.mem_ctrls.wrQLenPdf::24                 521461                       # What write queue length does an incoming req see
system.mem_ctrls.wrQLenPdf::25                 521461                       # What write queue length does an incoming req see
system.mem_ctrls.wrQLenPdf::26                 521462                       # What write queue length does an incoming req see
system.mem_ctrls.wrQLenPdf::27                 521464                       # What write queue length does an incoming req see
system.mem_ctrls.wrQLenPdf::28                 521464                       # What write queue length does an incoming req see
system.mem_ctrls.wrQLenPdf::29                 521503                       # What write queue length does an incoming req see
system.mem_ctrls.wrQLenPdf::30                 521464                       # What write queue length does an incoming req see
system.mem_ctrls.wrQLenPdf::31                 521462                       # What write queue length does an incoming req see
system.mem_ctrls.wrQLenPdf::32                 521461                       # What write queue length does an incoming req see
system.mem_ctrls.wrQLenPdf::33                      1                       # What write queue length does an incoming req see
system.mem_ctrls.wrQLenPdf::34                      1                       # What write queue length does an incoming req see
system.mem_ctrls.wrQLenPdf::35                      1                       # What write queue length does an incoming req see
system.mem_ctrls.wrQLenPdf::36                      0                       # What write queue length does an incoming req see
system.mem_ctrls.wrQLenPdf::37                      0                       # What write queue length does an incoming req see
system.mem_ctrls.wrQLenPdf::38                      0                       # What write queue length does an incoming req see
system.mem_ctrls.wrQLenPdf::39                      0                       # What write queue length does an incoming req see
system.mem_ctrls.wrQLenPdf::40                      0                       # What write queue length does an incoming req see
system.mem_ctrls.wrQLenPdf::41                      0                       # What write queue length does an incoming req see
system.mem_ctrls.wrQLenPdf::42                      0                       # What write queue length does an incoming req see
system.mem_ctrls.wrQLenPdf::43                      0                       # What write queue length does an incoming req see
system.mem_ctrls.wrQLenPdf::44                      0                       # What write queue length does an incoming req see
system.mem_ctrls.wrQLenPdf::45                      0                       # What write queue length does an incoming req see
system.mem_ctrls.wrQLenPdf::46                      0                       # What write queue length does an incoming req see
system.mem_ctrls.wrQLenPdf::47                      0                       # What write queue length does an incoming req see
system.mem_ctrls.wrQLenPdf::48                      0                       # What write queue length does an incoming req see
system.mem_ctrls.wrQLenPdf::49                      0                       # What write queue length does an incoming req see
system.mem_ctrls.wrQLenPdf::50                      0                       # What write queue length does an incoming req see
system.mem_ctrls.wrQLenPdf::51                      0                       # What write queue length does an incoming req see
system.mem_ctrls.wrQLenPdf::52                      0                       # What write queue length does an incoming req see
system.mem_ctrls.wrQLenPdf::53                      0                       # What write queue length does an incoming req see
system.mem_ctrls.wrQLenPdf::54                      0                       # What write queue length does an incoming req see
system.mem_ctrls.wrQLenPdf::55                      0                       # What write queue length does an incoming req see
system.mem_ctrls.wrQLenPdf::56                      0                       # What write queue length does an incoming req see
system.mem_ctrls.wrQLenPdf::57                      0                       # What write queue length does an incoming req see
system.mem_ctrls.wrQLenPdf::58                      0                       # What write queue length does an incoming req see
system.mem_ctrls.wrQLenPdf::59                      0                       # What write queue length does an incoming req see
system.mem_ctrls.wrQLenPdf::60                      0                       # What write queue length does an incoming req see
system.mem_ctrls.wrQLenPdf::61                      0                       # What write queue length does an incoming req see
system.mem_ctrls.wrQLenPdf::62                      0                       # What write queue length does an incoming req see
system.mem_ctrls.wrQLenPdf::63                      0                       # What write queue length does an incoming req see
system.mem_ctrls.bytesPerActivate::samples      2015366                       # Bytes accessed per row activation
system.mem_ctrls.bytesPerActivate::mean    794.625770                       # Bytes accessed per row activation
system.mem_ctrls.bytesPerActivate::gmean   618.072321                       # Bytes accessed per row activation
system.mem_ctrls.bytesPerActivate::stdev   353.793140                       # Bytes accessed per row activation
system.mem_ctrls.bytesPerActivate::0-127       218391     10.84%     10.84% # Bytes accessed per row activation
system.mem_ctrls.bytesPerActivate::128-255        82177      4.08%     14.91% # Bytes accessed per row activation
system.mem_ctrls.bytesPerActivate::256-383        67765      3.36%     18.28% # Bytes accessed per row activation
system.mem_ctrls.bytesPerActivate::384-511        76533      3.80%     22.07% # Bytes accessed per row activation
system.mem_ctrls.bytesPerActivate::512-639        87598      4.35%     26.42% # Bytes accessed per row activation
system.mem_ctrls.bytesPerActivate::640-767        66332      3.29%     29.71% # Bytes accessed per row activation
system.mem_ctrls.bytesPerActivate::768-895        66899      3.32%     33.03% # Bytes accessed per row activation
system.mem_ctrls.bytesPerActivate::896-1023        82393      4.09%     37.12% # Bytes accessed per row activation
system.mem_ctrls.bytesPerActivate::1024-1151      1267278     62.88%    100.00% # Bytes accessed per row activation
system.mem_ctrls.bytesPerActivate::total      2015366                       # Bytes accessed per row activation
system.mem_ctrls.rdPerTurnAround::samples       521461                       # Reads before turning the bus around for writes
system.mem_ctrls.rdPerTurnAround::mean      31.969672                       # Reads before turning the bus around for writes
system.mem_ctrls.rdPerTurnAround::gmean     31.883222                       # Reads before turning the bus around for writes
system.mem_ctrls.rdPerTurnAround::stdev     32.649971                       # Reads before turning the bus around for writes
system.mem_ctrls.rdPerTurnAround::0-1023       521458    100.00%    100.00% # Reads before turning the bus around for writes
system.mem_ctrls.rdPerTurnAround::2048-3071            2      0.00%    100.00% # Reads before turning the bus around for writes
system.mem_ctrls.rdPerTurnAround::22528-23551            1      0.00%    100.00% # Reads before turning the bus around for writes
system.mem_ctrls.rdPerTurnAround::total        521461                       # Reads before turning the bus around for writes
system.mem_ctrls.wrPerTurnAround::samples       521461                       # Writes before turning the bus around for reads
system.mem_ctrls.wrPerTurnAround::mean      16.016333                       # Writes before turning the bus around for reads
system.mem_ctrls.wrPerTurnAround::gmean     16.015437                       # Writes before turning the bus around for reads
system.mem_ctrls.wrPerTurnAround::stdev      0.175995                       # Writes before turning the bus around for reads
system.mem_ctrls.wrPerTurnAround::16           516814     99.11%     99.11% # Writes before turning the bus around for reads
system.mem_ctrls.wrPerTurnAround::17              794      0.15%     99.26% # Writes before turning the bus around for reads
system.mem_ctrls.wrPerTurnAround::18             3836      0.74%    100.00% # Writes before turning the bus around for reads
system.mem_ctrls.wrPerTurnAround::19               17      0.00%    100.00% # Writes before turning the bus around for reads
system.mem_ctrls.wrPerTurnAround::total        521461                       # Writes before turning the bus around for reads
system.mem_ctrls.totQLat                 247072641500                       # Total ticks spent queuing
system.mem_ctrls.totMemAccLat            559652897750                       # Total ticks spent from burst creation until serviced by the DRAM
system.mem_ctrls.totBusLat                83354735000                       # Total ticks spent in databus transfers
system.mem_ctrls.avgQLat                     14820.55                       # Average queueing delay per DRAM burst
system.mem_ctrls.avgBusLat                    5000.00                       # Average bus latency per DRAM burst
system.mem_ctrls.avgMemAccLat                33570.55                       # Average memory access latency per DRAM burst
system.mem_ctrls.avgRdBW                       448.22                       # Average DRAM read bandwidth in MiByte/s
system.mem_ctrls.avgWrBW                       224.55                       # Average achieved write bandwidth in MiByte/s
system.mem_ctrls.avgRdBWSys                    224.11                       # Average system read bandwidth in MiByte/s
system.mem_ctrls.avgWrBWSys                    223.49                       # Average system write bandwidth in MiByte/s
system.mem_ctrls.peakBW                      12800.00                       # Theoretical peak bandwidth in MiByte/s
system.mem_ctrls.busUtil                         5.26                       # Data bus utilization in percentage
system.mem_ctrls.busUtilRead                     3.50                       # Data bus utilization in percentage for reads
system.mem_ctrls.busUtilWrite                    1.75                       # Data bus utilization in percentage for writes
system.mem_ctrls.avgRdQLen                       1.00                       # Average read queue length when enqueuing
system.mem_ctrls.avgWrQLen                      25.35                       # Average write queue length when enqueuing
system.mem_ctrls.readRowHits                 15306490                       # Number of row buffer hits during reads
system.mem_ctrls.writeRowHits                 7700984                       # Number of row buffer hits during writes
system.mem_ctrls.readRowHitRate                 91.82                       # Row buffer hit rate for reads
system.mem_ctrls.writeRowHitRate                92.21                       # Row buffer hit rate for writes
system.mem_ctrls.avgGap                      71491.51                       # Average gap between requests
system.mem_ctrls.pageHitRate                    91.95                       # Row buffer hit rate, read and write combined
system.mem_ctrls_0.actEnergy               7198712220                       # Energy for activate commands per rank (pJ)
system.mem_ctrls_0.preEnergy               3826206285                       # Energy for precharge commands per rank (pJ)
system.mem_ctrls_0.readEnergy             59510122140                       # Energy for read commands per rank (pJ)
system.mem_ctrls_0.writeEnergy            21796908660                       # Energy for write commands per rank (pJ)
system.mem_ctrls_0.refreshEnergy         113173048560.000031                       # Energy for refresh commands per rank (pJ)
system.mem_ctrls_0.actBackEnergy         147625606440                       # Energy for active background per rank (pJ)
system.mem_ctrls_0.preBackEnergy           8679764160                       # Energy for precharge background per rank (pJ)
system.mem_ctrls_0.actPowerDownEnergy    296251497900                       # Energy for active power-down per rank (pJ)
system.mem_ctrls_0.prePowerDownEnergy     93852064320                       # Energy for precharge power-down per rank (pJ)
system.mem_ctrls_0.selfRefreshEnergy     288321528135                       # Energy for self refresh per rank (pJ)
system.mem_ctrls_0.totalEnergy           1040262441660                       # Total energy per rank (pJ)
system.mem_ctrls_0.averagePower            437.010993                       # Core power per rank (mW)
system.mem_ctrls_0.totalIdleTime         2033983343500                       # Total Idle time Per DRAM Rank
system.mem_ctrls_0.memoryStateTime::IDLE   9687079500                       # Time in different power states
system.mem_ctrls_0.memoryStateTime::REF   48049070000                       # Time in different power states
system.mem_ctrls_0.memoryStateTime::SREF 1139918828750                       # Time in different power states
system.mem_ctrls_0.memoryStateTime::PRE_PDN 244403552250                       # Time in different power states
system.mem_ctrls_0.memoryStateTime::ACT  288669104750                       # Time in different power states
system.mem_ctrls_0.memoryStateTime::ACT_PDN 649675724250                       # Time in different power states
system.mem_ctrls_1.actEnergy               7191001020                       # Energy for activate commands per rank (pJ)
system.mem_ctrls_1.preEnergy               3822107685                       # Energy for precharge commands per rank (pJ)
system.mem_ctrls_1.readEnergy             59520439440                       # Energy for read commands per rank (pJ)
system.mem_ctrls_1.writeEnergy            21799972800                       # Energy for write commands per rank (pJ)
system.mem_ctrls_1.refreshEnergy         112708995360.000031                       # Energy for refresh commands per rank (pJ)
system.mem_ctrls_1.actBackEnergy         147562071960                       # Energy for active background per rank (pJ)
system.mem_ctrls_1.preBackEnergy           8655195360                       # Energy for precharge background per rank (pJ)
system.mem_ctrls_1.actPowerDownEnergy    295451746860                       # Energy for active power-down per rank (pJ)
system.mem_ctrls_1.prePowerDownEnergy     93000131040                       # Energy for precharge power-down per rank (pJ)
system.mem_ctrls_1.selfRefreshEnergy     289193253465                       # Energy for self refresh per rank (pJ)
system.mem_ctrls_1.totalEnergy           1038929029650                       # Total energy per rank (pJ)
system.mem_ctrls_1.averagePower            436.450829                       # Core power per rank (mW)
system.mem_ctrls_1.totalIdleTime         2034198214000                       # Total Idle time Per DRAM Rank
system.mem_ctrls_1.memoryStateTime::IDLE   9627761750                       # Time in different power states
system.mem_ctrls_1.memoryStateTime::REF   47851288000                       # Time in different power states
system.mem_ctrls_1.memoryStateTime::SREF 1144100889000                       # Time in different power states
system.mem_ctrls_1.memoryStateTime::PRE_PDN 242185216500                       # Time in different power states
system.mem_ctrls_1.memoryStateTime::ACT  288716117750                       # Time in different power states
system.mem_ctrls_1.memoryStateTime::ACT_PDN 647922086500                       # Time in different power states
system.pwrStateResidencyTicks::UNDEFINED 2380403359500                       # Cumulative time (in ticks) in various power states
system.cpu_voltage_domain.voltage                   1                       # Voltage in Volts
system.cpu_clk_domain.clock                       500                       # Clock period in ticks
system.cpu.dtb.walker.pwrStateResidencyTicks::UNDEFINED 2380403359500                       # Cumulative time (in ticks) in various power states
system.cpu.apic_clk_domain.clock                 8000                       # Clock period in ticks
system.cpu.interrupts.pwrStateResidencyTicks::UNDEFINED 2380403359500                       # Cumulative time (in ticks) in various power states
system.cpu.itb.walker.pwrStateResidencyTicks::UNDEFINED 2380403359500                       # Cumulative time (in ticks) in various power states
system.cpu.workload.num_syscalls                  196                       # Number of system calls
system.cpu.pwrStateResidencyTicks::ON    2380403359500                       # Cumulative time (in ticks) in various power states
system.cpu.numCycles                       4760806719                       # number of cpu cycles simulated
system.cpu.numWorkItemsStarted                      0                       # number of work items this cpu started
system.cpu.numWorkItemsCompleted                    0                       # number of work items this cpu completed
system.cpu.committedInsts                   500000000                       # Number of instructions committed
system.cpu.committedOps                     823366692                       # Number of ops (including micro ops) committed
system.cpu.num_int_alu_accesses             821415783                       # Number of integer alu accesses
system.cpu.num_fp_alu_accesses               66619246                       # Number of float alu accesses
system.cpu.num_func_calls                     5652773                       # number of times a function call or return occured
system.cpu.num_conditional_control_insts     57208853                       # number of instructions that are conditional controls
system.cpu.num_int_insts                    821415783                       # number of integer instructions
system.cpu.num_fp_insts                      66619246                       # number of float instructions
system.cpu.num_int_register_reads          1637209917                       # number of times the integer registers were read
system.cpu.num_int_register_writes          639871082                       # number of times the integer registers were written
system.cpu.num_fp_register_reads             66766836                       # number of times the floating registers were read
system.cpu.num_fp_register_writes              208042                       # number of times the floating registers were written
system.cpu.num_cc_register_reads            319714243                       # number of times the CC registers were read
system.cpu.num_cc_register_writes           287984022                       # number of times the CC registers were written
system.cpu.num_mem_refs                     271673939                       # number of memory refs
system.cpu.num_load_insts                   157213791                       # Number of load instructions
system.cpu.num_store_insts                  114460148                       # Number of store instructions
system.cpu.num_idle_cycles                          0                       # Number of idle cycles
system.cpu.num_busy_cycles                 4760806719                       # Number of busy cycles
system.cpu.not_idle_fraction                        1                       # Percentage of non-idle cycles
system.cpu.idle_fraction                            0                       # Percentage of idle cycles
system.cpu.Branches                          69678400                       # Number of branches fetched
system.cpu.op_class::No_OpClass                202234      0.02%      0.02% # Class of executed instruction
system.cpu.op_class::IntAlu                 550028817     66.80%     66.83% # Class of executed instruction
system.cpu.op_class::IntMult                   125092      0.02%     66.84% # Class of executed instruction
system.cpu.op_class::IntDiv                   1153479      0.14%     66.98% # Class of executed instruction
system.cpu.op_class::FloatAdd                  183131      0.02%     67.00% # Class of executed instruction
system.cpu.op_class::FloatCmp                       0      0.00%     67.00% # Class of executed instruction
system.cpu.op_class::FloatCvt                       0      0.00%     67.00% # Class of executed instruction
system.cpu.op_class::FloatMult                      0      0.00%     67.00% # Class of executed instruction
system.cpu.op_class::FloatDiv                       0      0.00%     67.00% # Class of executed instruction
system.cpu.op_class::FloatSqrt                      0      0.00%     67.00% # Class of executed instruction
system.cpu.op_class::SimdAdd                        0      0.00%     67.00% # Class of executed instruction
system.cpu.op_class::SimdAddAcc                     0      0.00%     67.00% # Class of executed instruction
system.cpu.op_class::SimdAlu                        0      0.00%     67.00% # Class of executed instruction
system.cpu.op_class::SimdCmp                        0      0.00%     67.00% # Class of executed instruction
system.cpu.op_class::SimdCvt                        0      0.00%     67.00% # Class of executed instruction
system.cpu.op_class::SimdMisc                       0      0.00%     67.00% # Class of executed instruction
system.cpu.op_class::SimdMult                       0      0.00%     67.00% # Class of executed instruction
system.cpu.op_class::SimdMultAcc                    0      0.00%     67.00% # Class of executed instruction
system.cpu.op_class::SimdShift                      0      0.00%     67.00% # Class of executed instruction
system.cpu.op_class::SimdShiftAcc                   0      0.00%     67.00% # Class of executed instruction
system.cpu.op_class::SimdSqrt                       0      0.00%     67.00% # Class of executed instruction
system.cpu.op_class::SimdFloatAdd                   0      0.00%     67.00% # Class of executed instruction
system.cpu.op_class::SimdFloatAlu                   0      0.00%     67.00% # Class of executed instruction
system.cpu.op_class::SimdFloatCmp                   0      0.00%     67.00% # Class of executed instruction
system.cpu.op_class::SimdFloatCvt                   0      0.00%     67.00% # Class of executed instruction
system.cpu.op_class::SimdFloatDiv                   0      0.00%     67.00% # Class of executed instruction
system.cpu.op_class::SimdFloatMisc                  0      0.00%     67.00% # Class of executed instruction
system.cpu.op_class::SimdFloatMult                  0      0.00%     67.00% # Class of executed instruction
system.cpu.op_class::SimdFloatMultAcc               0      0.00%     67.00% # Class of executed instruction
system.cpu.op_class::SimdFloatSqrt                  0      0.00%     67.00% # Class of executed instruction
system.cpu.op_class::MemRead                157213791     19.09%     86.10% # Class of executed instruction
system.cpu.op_class::MemWrite               114460148     13.90%    100.00% # Class of executed instruction
system.cpu.op_class::IprAccess                      0      0.00%    100.00% # Class of executed instruction
system.cpu.op_class::InstPrefetch                   0      0.00%    100.00% # Class of executed instruction
system.cpu.op_class::total                  823366692                       # Class of executed instruction
system.cpu.dcache.tags.pwrStateResidencyTicks::UNDEFINED 2380403359500                       # Cumulative time (in ticks) in various power states
system.cpu.dcache.tags.replacements          16796278                       # number of replacements
system.cpu.dcache.tags.tagsinuse          2047.581955                       # Cycle average of tags in use
system.cpu.dcache.tags.total_refs           254876230                       # Total number of references to valid blocks.
system.cpu.dcache.tags.sampled_refs          16798326                       # Sample count of references to valid blocks.
system.cpu.dcache.tags.avg_refs             15.172716                       # Average number of references to valid blocks.
system.cpu.dcache.tags.warmup_cycle        4335657500                       # Cycle when the warmup percentage was hit.
system.cpu.dcache.tags.occ_blocks::cpu.data  2047.581955                       # Average occupied blocks per requestor
system.cpu.dcache.tags.occ_percent::cpu.data     0.999796                       # Average percentage of cache occupancy
system.cpu.dcache.tags.occ_percent::total     0.999796                       # Average percentage of cache occupancy
system.cpu.dcache.tags.occ_task_id_blocks::1024         2048                       # Occupied blocks per task id
system.cpu.dcache.tags.age_task_id_blocks_1024::0            2                       # Occupied blocks per task id
system.cpu.dcache.tags.age_task_id_blocks_1024::1           45                       # Occupied blocks per task id
system.cpu.dcache.tags.age_task_id_blocks_1024::2          176                       # Occupied blocks per task id
system.cpu.dcache.tags.age_task_id_blocks_1024::3          863                       # Occupied blocks per task id
system.cpu.dcache.tags.age_task_id_blocks_1024::4          962                       # Occupied blocks per task id
system.cpu.dcache.tags.occ_task_id_percent::1024            1                       # Percentage of cache occupancy per task id
system.cpu.dcache.tags.tag_accesses        1103496550                       # Number of tag accesses
system.cpu.dcache.tags.data_accesses       1103496550                       # Number of data accesses
system.cpu.dcache.pwrStateResidencyTicks::UNDEFINED 2380403359500                       # Cumulative time (in ticks) in various power states
system.cpu.dcache.ReadReq_hits::cpu.data    157080233                       # number of ReadReq hits
system.cpu.dcache.ReadReq_hits::total       157080233                       # number of ReadReq hits
system.cpu.dcache.WriteReq_hits::cpu.data     97795997                       # number of WriteReq hits
system.cpu.dcache.WriteReq_hits::total       97795997                       # number of WriteReq hits
system.cpu.dcache.demand_hits::cpu.data     254876230                       # number of demand (read+write) hits
system.cpu.dcache.demand_hits::total        254876230                       # number of demand (read+write) hits
system.cpu.dcache.overall_hits::cpu.data    254876230                       # number of overall hits
system.cpu.dcache.overall_hits::total       254876230                       # number of overall hits
system.cpu.dcache.ReadReq_misses::cpu.data       134162                       # number of ReadReq misses
system.cpu.dcache.ReadReq_misses::total        134162                       # number of ReadReq misses
system.cpu.dcache.WriteReq_misses::cpu.data     16664164                       # number of WriteReq misses
system.cpu.dcache.WriteReq_misses::total     16664164                       # number of WriteReq misses
system.cpu.dcache.demand_misses::cpu.data     16798326                       # number of demand (read+write) misses
system.cpu.dcache.demand_misses::total       16798326                       # number of demand (read+write) misses
system.cpu.dcache.overall_misses::cpu.data     16798326                       # number of overall misses
system.cpu.dcache.overall_misses::total      16798326                       # number of overall misses
system.cpu.dcache.ReadReq_miss_latency::cpu.data  25703237500                       # number of ReadReq miss cycles
system.cpu.dcache.ReadReq_miss_latency::total  25703237500                       # number of ReadReq miss cycles
system.cpu.dcache.WriteReq_miss_latency::cpu.data 1423291524500                       # number of WriteReq miss cycles
system.cpu.dcache.WriteReq_miss_latency::total 1423291524500                       # number of WriteReq miss cycles
system.cpu.dcache.demand_miss_latency::cpu.data 1448994762000                       # number of demand (read+write) miss cycles
system.cpu.dcache.demand_miss_latency::total 1448994762000                       # number of demand (read+write) miss cycles
system.cpu.dcache.overall_miss_latency::cpu.data 1448994762000                       # number of overall miss cycles
system.cpu.dcache.overall_miss_latency::total 1448994762000                       # number of overall miss cycles
system.cpu.dcache.ReadReq_accesses::cpu.data    157214395                       # number of ReadReq accesses(hits+misses)
system.cpu.dcache.ReadReq_accesses::total    157214395                       # number of ReadReq accesses(hits+misses)
system.cpu.dcache.WriteReq_accesses::cpu.data    114460161                       # number of WriteReq accesses(hits+misses)
system.cpu.dcache.WriteReq_accesses::total    114460161                       # number of WriteReq accesses(hits+misses)
system.cpu.dcache.demand_accesses::cpu.data    271674556                       # number of demand (read+write) accesses
system.cpu.dcache.demand_accesses::total    271674556                       # number of demand (read+write) accesses
system.cpu.dcache.overall_accesses::cpu.data    271674556                       # number of overall (read+write) accesses
system.cpu.dcache.overall_accesses::total    271674556                       # number of overall (read+write) accesses
system.cpu.dcache.ReadReq_miss_rate::cpu.data     0.000853                       # miss rate for ReadReq accesses
system.cpu.dcache.ReadReq_miss_rate::total     0.000853                       # miss rate for ReadReq accesses
system.cpu.dcache.WriteReq_miss_rate::cpu.data     0.145589                       # miss rate for WriteReq accesses
system.cpu.dcache.WriteReq_miss_rate::total     0.145589                       # miss rate for WriteReq accesses
system.cpu.dcache.demand_miss_rate::cpu.data     0.061833                       # miss rate for demand accesses
system.cpu.dcache.demand_miss_rate::total     0.061833                       # miss rate for demand accesses
system.cpu.dcache.overall_miss_rate::cpu.data     0.061833                       # miss rate for overall accesses
system.cpu.dcache.overall_miss_rate::total     0.061833                       # miss rate for overall accesses
system.cpu.dcache.ReadReq_avg_miss_latency::cpu.data 191583.589243                       # average ReadReq miss latency
system.cpu.dcache.ReadReq_avg_miss_latency::total 191583.589243                       # average ReadReq miss latency
system.cpu.dcache.WriteReq_avg_miss_latency::cpu.data 85410.316683                       # average WriteReq miss latency
system.cpu.dcache.WriteReq_avg_miss_latency::total 85410.316683                       # average WriteReq miss latency
system.cpu.dcache.demand_avg_miss_latency::cpu.data 86258.283236                       # average overall miss latency
system.cpu.dcache.demand_avg_miss_latency::total 86258.283236                       # average overall miss latency
system.cpu.dcache.overall_avg_miss_latency::cpu.data 86258.283236                       # average overall miss latency
system.cpu.dcache.overall_avg_miss_latency::total 86258.283236                       # average overall miss latency
system.cpu.dcache.blocked_cycles::no_mshrs            0                       # number of cycles access was blocked
system.cpu.dcache.blocked_cycles::no_targets            0                       # number of cycles access was blocked
system.cpu.dcache.blocked::no_mshrs                 0                       # number of cycles access was blocked
system.cpu.dcache.blocked::no_targets               0                       # number of cycles access was blocked
system.cpu.dcache.avg_blocked_cycles::no_mshrs          nan                       # average number of cycles each access was blocked
system.cpu.dcache.avg_blocked_cycles::no_targets          nan                       # average number of cycles each access was blocked
system.cpu.dcache.writebacks::writebacks     16754145                       # number of writebacks
system.cpu.dcache.writebacks::total          16754145                       # number of writebacks
system.cpu.dcache.ReadReq_mshr_misses::cpu.data       134162                       # number of ReadReq MSHR misses
system.cpu.dcache.ReadReq_mshr_misses::total       134162                       # number of ReadReq MSHR misses
system.cpu.dcache.WriteReq_mshr_misses::cpu.data     16664164                       # number of WriteReq MSHR misses
system.cpu.dcache.WriteReq_mshr_misses::total     16664164                       # number of WriteReq MSHR misses
system.cpu.dcache.demand_mshr_misses::cpu.data     16798326                       # number of demand (read+write) MSHR misses
system.cpu.dcache.demand_mshr_misses::total     16798326                       # number of demand (read+write) MSHR misses
system.cpu.dcache.overall_mshr_misses::cpu.data     16798326                       # number of overall MSHR misses
system.cpu.dcache.overall_mshr_misses::total     16798326                       # number of overall MSHR misses
system.cpu.dcache.ReadReq_mshr_miss_latency::cpu.data  25569075500                       # number of ReadReq MSHR miss cycles
system.cpu.dcache.ReadReq_mshr_miss_latency::total  25569075500                       # number of ReadReq MSHR miss cycles
system.cpu.dcache.WriteReq_mshr_miss_latency::cpu.data 1406627360500                       # number of WriteReq MSHR miss cycles
system.cpu.dcache.WriteReq_mshr_miss_latency::total 1406627360500                       # number of WriteReq MSHR miss cycles
system.cpu.dcache.demand_mshr_miss_latency::cpu.data 1432196436000                       # number of demand (read+write) MSHR miss cycles
system.cpu.dcache.demand_mshr_miss_latency::total 1432196436000                       # number of demand (read+write) MSHR miss cycles
system.cpu.dcache.overall_mshr_miss_latency::cpu.data 1432196436000                       # number of overall MSHR miss cycles
system.cpu.dcache.overall_mshr_miss_latency::total 1432196436000                       # number of overall MSHR miss cycles
system.cpu.dcache.ReadReq_mshr_miss_rate::cpu.data     0.000853                       # mshr miss rate for ReadReq accesses
system.cpu.dcache.ReadReq_mshr_miss_rate::total     0.000853                       # mshr miss rate for ReadReq accesses
system.cpu.dcache.WriteReq_mshr_miss_rate::cpu.data     0.145589                       # mshr miss rate for WriteReq accesses
system.cpu.dcache.WriteReq_mshr_miss_rate::total     0.145589                       # mshr miss rate for WriteReq accesses
system.cpu.dcache.demand_mshr_miss_rate::cpu.data     0.061833                       # mshr miss rate for demand accesses
system.cpu.dcache.demand_mshr_miss_rate::total     0.061833                       # mshr miss rate for demand accesses
system.cpu.dcache.overall_mshr_miss_rate::cpu.data     0.061833                       # mshr miss rate for overall accesses
system.cpu.dcache.overall_mshr_miss_rate::total     0.061833                       # mshr miss rate for overall accesses
system.cpu.dcache.ReadReq_avg_mshr_miss_latency::cpu.data 190583.589243                       # average ReadReq mshr miss latency
system.cpu.dcache.ReadReq_avg_mshr_miss_latency::total 190583.589243                       # average ReadReq mshr miss latency
system.cpu.dcache.WriteReq_avg_mshr_miss_latency::cpu.data 84410.316683                       # average WriteReq mshr miss latency
system.cpu.dcache.WriteReq_avg_mshr_miss_latency::total 84410.316683                       # average WriteReq mshr miss latency
system.cpu.dcache.demand_avg_mshr_miss_latency::cpu.data 85258.283236                       # average overall mshr miss latency
system.cpu.dcache.demand_avg_mshr_miss_latency::total 85258.283236                       # average overall mshr miss latency
system.cpu.dcache.overall_avg_mshr_miss_latency::cpu.data 85258.283236                       # average overall mshr miss latency
system.cpu.dcache.overall_avg_mshr_miss_latency::total 85258.283236                       # average overall mshr miss latency
system.cpu.dtb_walker_cache.tags.pwrStateResidencyTicks::UNDEFINED 2380403359500                       # Cumulative time (in ticks) in various power states
system.cpu.dtb_walker_cache.tags.replacements            0                       # number of replacements
system.cpu.dtb_walker_cache.tags.tagsinuse            0                       # Cycle average of tags in use
system.cpu.dtb_walker_cache.tags.total_refs            0                       # Total number of references to valid blocks.
system.cpu.dtb_walker_cache.tags.sampled_refs            0                       # Sample count of references to valid blocks.
system.cpu.dtb_walker_cache.tags.avg_refs          nan                       # Average number of references to valid blocks.
system.cpu.dtb_walker_cache.tags.warmup_cycle            0                       # Cycle when the warmup percentage was hit.
system.cpu.dtb_walker_cache.tags.tag_accesses            0                       # Number of tag accesses
system.cpu.dtb_walker_cache.tags.data_accesses            0                       # Number of data accesses
system.cpu.dtb_walker_cache.pwrStateResidencyTicks::UNDEFINED 2380403359500                       # Cumulative time (in ticks) in various power states
system.cpu.dtb_walker_cache.blocked_cycles::no_mshrs            0                       # number of cycles access was blocked
system.cpu.dtb_walker_cache.blocked_cycles::no_targets            0                       # number of cycles access was blocked
system.cpu.dtb_walker_cache.blocked::no_mshrs            0                       # number of cycles access was blocked
system.cpu.dtb_walker_cache.blocked::no_targets            0                       # number of cycles access was blocked
system.cpu.dtb_walker_cache.avg_blocked_cycles::no_mshrs          nan                       # average number of cycles each access was blocked
system.cpu.dtb_walker_cache.avg_blocked_cycles::no_targets          nan                       # average number of cycles each access was blocked
system.cpu.icache.tags.pwrStateResidencyTicks::UNDEFINED 2380403359500                       # Cumulative time (in ticks) in various power states
system.cpu.icache.tags.replacements             70752                       # number of replacements
system.cpu.icache.tags.tagsinuse          1306.888881                       # Cycle average of tags in use
system.cpu.icache.tags.total_refs           675280891                       # Total number of references to valid blocks.
system.cpu.icache.tags.sampled_refs             72766                       # Sample count of references to valid blocks.
system.cpu.icache.tags.avg_refs           9280.170560                       # Average number of references to valid blocks.
system.cpu.icache.tags.warmup_cycle                 0                       # Cycle when the warmup percentage was hit.
system.cpu.icache.tags.occ_blocks::cpu.inst  1306.888881                       # Average occupied blocks per requestor
system.cpu.icache.tags.occ_percent::cpu.inst     0.638129                       # Average percentage of cache occupancy
system.cpu.icache.tags.occ_percent::total     0.638129                       # Average percentage of cache occupancy
system.cpu.icache.tags.occ_task_id_blocks::1024         2014                       # Occupied blocks per task id
system.cpu.icache.tags.age_task_id_blocks_1024::1           18                       # Occupied blocks per task id
system.cpu.icache.tags.age_task_id_blocks_1024::2           21                       # Occupied blocks per task id
system.cpu.icache.tags.age_task_id_blocks_1024::3           40                       # Occupied blocks per task id
system.cpu.icache.tags.age_task_id_blocks_1024::4         1935                       # Occupied blocks per task id
system.cpu.icache.tags.occ_task_id_percent::1024     0.983398                       # Percentage of cache occupancy per task id
system.cpu.icache.tags.tag_accesses        2701487394                       # Number of tag accesses
system.cpu.icache.tags.data_accesses       2701487394                       # Number of data accesses
system.cpu.icache.pwrStateResidencyTicks::UNDEFINED 2380403359500                       # Cumulative time (in ticks) in various power states
system.cpu.icache.ReadReq_hits::cpu.inst    675280891                       # number of ReadReq hits
system.cpu.icache.ReadReq_hits::total       675280891                       # number of ReadReq hits
system.cpu.icache.demand_hits::cpu.inst     675280891                       # number of demand (read+write) hits
system.cpu.icache.demand_hits::total        675280891                       # number of demand (read+write) hits
system.cpu.icache.overall_hits::cpu.inst    675280891                       # number of overall hits
system.cpu.icache.overall_hits::total       675280891                       # number of overall hits
system.cpu.icache.ReadReq_misses::cpu.inst        72766                       # number of ReadReq misses
system.cpu.icache.ReadReq_misses::total         72766                       # number of ReadReq misses
system.cpu.icache.demand_misses::cpu.inst        72766                       # number of demand (read+write) misses
system.cpu.icache.demand_misses::total          72766                       # number of demand (read+write) misses
system.cpu.icache.overall_misses::cpu.inst        72766                       # number of overall misses
system.cpu.icache.overall_misses::total         72766                       # number of overall misses
system.cpu.icache.ReadReq_miss_latency::cpu.inst   1251905500                       # number of ReadReq miss cycles
system.cpu.icache.ReadReq_miss_latency::total   1251905500                       # number of ReadReq miss cycles
system.cpu.icache.demand_miss_latency::cpu.inst   1251905500                       # number of demand (read+write) miss cycles
system.cpu.icache.demand_miss_latency::total   1251905500                       # number of demand (read+write) miss cycles
system.cpu.icache.overall_miss_latency::cpu.inst   1251905500                       # number of overall miss cycles
system.cpu.icache.overall_miss_latency::total   1251905500                       # number of overall miss cycles
system.cpu.icache.ReadReq_accesses::cpu.inst    675353657                       # number of ReadReq accesses(hits+misses)
system.cpu.icache.ReadReq_accesses::total    675353657                       # number of ReadReq accesses(hits+misses)
system.cpu.icache.demand_accesses::cpu.inst    675353657                       # number of demand (read+write) accesses
system.cpu.icache.demand_accesses::total    675353657                       # number of demand (read+write) accesses
system.cpu.icache.overall_accesses::cpu.inst    675353657                       # number of overall (read+write) accesses
system.cpu.icache.overall_accesses::total    675353657                       # number of overall (read+write) accesses
system.cpu.icache.ReadReq_miss_rate::cpu.inst     0.000108                       # miss rate for ReadReq accesses
system.cpu.icache.ReadReq_miss_rate::total     0.000108                       # miss rate for ReadReq accesses
system.cpu.icache.demand_miss_rate::cpu.inst     0.000108                       # miss rate for demand accesses
system.cpu.icache.demand_miss_rate::total     0.000108                       # miss rate for demand accesses
system.cpu.icache.overall_miss_rate::cpu.inst     0.000108                       # miss rate for overall accesses
system.cpu.icache.overall_miss_rate::total     0.000108                       # miss rate for overall accesses
system.cpu.icache.ReadReq_avg_miss_latency::cpu.inst 17204.539208                       # average ReadReq miss latency
system.cpu.icache.ReadReq_avg_miss_latency::total 17204.539208                       # average ReadReq miss latency
system.cpu.icache.demand_avg_miss_latency::cpu.inst 17204.539208                       # average overall miss latency
system.cpu.icache.demand_avg_miss_latency::total 17204.539208                       # average overall miss latency
system.cpu.icache.overall_avg_miss_latency::cpu.inst 17204.539208                       # average overall miss latency
system.cpu.icache.overall_avg_miss_latency::total 17204.539208                       # average overall miss latency
system.cpu.icache.blocked_cycles::no_mshrs            0                       # number of cycles access was blocked
system.cpu.icache.blocked_cycles::no_targets            0                       # number of cycles access was blocked
system.cpu.icache.blocked::no_mshrs                 0                       # number of cycles access was blocked
system.cpu.icache.blocked::no_targets               0                       # number of cycles access was blocked
system.cpu.icache.avg_blocked_cycles::no_mshrs          nan                       # average number of cycles each access was blocked
system.cpu.icache.avg_blocked_cycles::no_targets          nan                       # average number of cycles each access was blocked
system.cpu.icache.writebacks::writebacks        70752                       # number of writebacks
system.cpu.icache.writebacks::total             70752                       # number of writebacks
system.cpu.icache.ReadReq_mshr_misses::cpu.inst        72766                       # number of ReadReq MSHR misses
system.cpu.icache.ReadReq_mshr_misses::total        72766                       # number of ReadReq MSHR misses
system.cpu.icache.demand_mshr_misses::cpu.inst        72766                       # number of demand (read+write) MSHR misses
system.cpu.icache.demand_mshr_misses::total        72766                       # number of demand (read+write) MSHR misses
system.cpu.icache.overall_mshr_misses::cpu.inst        72766                       # number of overall MSHR misses
system.cpu.icache.overall_mshr_misses::total        72766                       # number of overall MSHR misses
system.cpu.icache.ReadReq_mshr_miss_latency::cpu.inst   1179139500                       # number of ReadReq MSHR miss cycles
system.cpu.icache.ReadReq_mshr_miss_latency::total   1179139500                       # number of ReadReq MSHR miss cycles
system.cpu.icache.demand_mshr_miss_latency::cpu.inst   1179139500                       # number of demand (read+write) MSHR miss cycles
system.cpu.icache.demand_mshr_miss_latency::total   1179139500                       # number of demand (read+write) MSHR miss cycles
system.cpu.icache.overall_mshr_miss_latency::cpu.inst   1179139500                       # number of overall MSHR miss cycles
system.cpu.icache.overall_mshr_miss_latency::total   1179139500                       # number of overall MSHR miss cycles
system.cpu.icache.ReadReq_mshr_miss_rate::cpu.inst     0.000108                       # mshr miss rate for ReadReq accesses
system.cpu.icache.ReadReq_mshr_miss_rate::total     0.000108                       # mshr miss rate for ReadReq accesses
system.cpu.icache.demand_mshr_miss_rate::cpu.inst     0.000108                       # mshr miss rate for demand accesses
system.cpu.icache.demand_mshr_miss_rate::total     0.000108                       # mshr miss rate for demand accesses
system.cpu.icache.overall_mshr_miss_rate::cpu.inst     0.000108                       # mshr miss rate for overall accesses
system.cpu.icache.overall_mshr_miss_rate::total     0.000108                       # mshr miss rate for overall accesses
system.cpu.icache.ReadReq_avg_mshr_miss_latency::cpu.inst 16204.539208                       # average ReadReq mshr miss latency
system.cpu.icache.ReadReq_avg_mshr_miss_latency::total 16204.539208                       # average ReadReq mshr miss latency
system.cpu.icache.demand_avg_mshr_miss_latency::cpu.inst 16204.539208                       # average overall mshr miss latency
system.cpu.icache.demand_avg_mshr_miss_latency::total 16204.539208                       # average overall mshr miss latency
system.cpu.icache.overall_avg_mshr_miss_latency::cpu.inst 16204.539208                       # average overall mshr miss latency
system.cpu.icache.overall_avg_mshr_miss_latency::total 16204.539208                       # average overall mshr miss latency
system.cpu.itb_walker_cache.tags.pwrStateResidencyTicks::UNDEFINED 2380403359500                       # Cumulative time (in ticks) in various power states
system.cpu.itb_walker_cache.tags.replacements            0                       # number of replacements
system.cpu.itb_walker_cache.tags.tagsinuse            0                       # Cycle average of tags in use
system.cpu.itb_walker_cache.tags.total_refs            0                       # Total number of references to valid blocks.
system.cpu.itb_walker_cache.tags.sampled_refs            0                       # Sample count of references to valid blocks.
system.cpu.itb_walker_cache.tags.avg_refs          nan                       # Average number of references to valid blocks.
system.cpu.itb_walker_cache.tags.warmup_cycle            0                       # Cycle when the warmup percentage was hit.
system.cpu.itb_walker_cache.tags.tag_accesses            0                       # Number of tag accesses
system.cpu.itb_walker_cache.tags.data_accesses            0                       # Number of data accesses
system.cpu.itb_walker_cache.pwrStateResidencyTicks::UNDEFINED 2380403359500                       # Cumulative time (in ticks) in various power states
system.cpu.itb_walker_cache.blocked_cycles::no_mshrs            0                       # number of cycles access was blocked
system.cpu.itb_walker_cache.blocked_cycles::no_targets            0                       # number of cycles access was blocked
system.cpu.itb_walker_cache.blocked::no_mshrs            0                       # number of cycles access was blocked
system.cpu.itb_walker_cache.blocked::no_targets            0                       # number of cycles access was blocked
system.cpu.itb_walker_cache.avg_blocked_cycles::no_mshrs          nan                       # average number of cycles each access was blocked
system.cpu.itb_walker_cache.avg_blocked_cycles::no_targets          nan                       # average number of cycles each access was blocked
system.l2.tags.pwrStateResidencyTicks::UNDEFINED 2380403359500                       # Cumulative time (in ticks) in various power states
system.l2.tags.replacements                  16640938                       # number of replacements
system.l2.tags.tagsinuse                 32655.331157                       # Cycle average of tags in use
system.l2.tags.total_refs                    17063869                       # Total number of references to valid blocks.
system.l2.tags.sampled_refs                  16673706                       # Sample count of references to valid blocks.
system.l2.tags.avg_refs                      1.023400                       # Average number of references to valid blocks.
system.l2.tags.warmup_cycle               11058009000                       # Cycle when the warmup percentage was hit.
system.l2.tags.occ_blocks::writebacks      229.708673                       # Average occupied blocks per requestor
system.l2.tags.occ_blocks::cpu.inst        261.421643                       # Average occupied blocks per requestor
system.l2.tags.occ_blocks::cpu.data      32164.200841                       # Average occupied blocks per requestor
system.l2.tags.occ_percent::writebacks       0.007010                       # Average percentage of cache occupancy
system.l2.tags.occ_percent::cpu.inst         0.007978                       # Average percentage of cache occupancy
system.l2.tags.occ_percent::cpu.data         0.981574                       # Average percentage of cache occupancy
system.l2.tags.occ_percent::total            0.996562                       # Average percentage of cache occupancy
system.l2.tags.occ_task_id_blocks::1024         32768                       # Occupied blocks per task id
system.l2.tags.age_task_id_blocks_1024::1            7                       # Occupied blocks per task id
system.l2.tags.age_task_id_blocks_1024::2           96                       # Occupied blocks per task id
system.l2.tags.age_task_id_blocks_1024::3          948                       # Occupied blocks per task id
system.l2.tags.age_task_id_blocks_1024::4        31717                       # Occupied blocks per task id
system.l2.tags.occ_task_id_percent::1024            1                       # Percentage of cache occupancy per task id
system.l2.tags.tag_accesses                  84149950                       # Number of tag accesses
system.l2.tags.data_accesses                 84149950                       # Number of data accesses
system.l2.pwrStateResidencyTicks::UNDEFINED 2380403359500                       # Cumulative time (in ticks) in various power states
system.l2.WritebackDirty_hits::writebacks     16754145                       # number of WritebackDirty hits
system.l2.WritebackDirty_hits::total         16754145                       # number of WritebackDirty hits
system.l2.WritebackClean_hits::writebacks        70752                       # number of WritebackClean hits
system.l2.WritebackClean_hits::total            70752                       # number of WritebackClean hits
system.l2.ReadExReq_hits::cpu.data              76132                       # number of ReadExReq hits
system.l2.ReadExReq_hits::total                 76132                       # number of ReadExReq hits
system.l2.ReadCleanReq_hits::cpu.inst           69650                       # number of ReadCleanReq hits
system.l2.ReadCleanReq_hits::total              69650                       # number of ReadCleanReq hits
system.l2.ReadSharedReq_hits::cpu.data          54334                       # number of ReadSharedReq hits
system.l2.ReadSharedReq_hits::total             54334                       # number of ReadSharedReq hits
system.l2.demand_hits::cpu.inst                 69650                       # number of demand (read+write) hits
system.l2.demand_hits::cpu.data                130466                       # number of demand (read+write) hits
system.l2.demand_hits::total                   200116                       # number of demand (read+write) hits
system.l2.overall_hits::cpu.inst                69650                       # number of overall hits
system.l2.overall_hits::cpu.data               130466                       # number of overall hits
system.l2.overall_hits::total                  200116                       # number of overall hits
system.l2.ReadExReq_misses::cpu.data         16588032                       # number of ReadExReq misses
system.l2.ReadExReq_misses::total            16588032                       # number of ReadExReq misses
system.l2.ReadCleanReq_misses::cpu.inst          3116                       # number of ReadCleanReq misses
system.l2.ReadCleanReq_misses::total             3116                       # number of ReadCleanReq misses
system.l2.ReadSharedReq_misses::cpu.data        79828                       # number of ReadSharedReq misses
system.l2.ReadSharedReq_misses::total           79828                       # number of ReadSharedReq misses
system.l2.demand_misses::cpu.inst                3116                       # number of demand (read+write) misses
system.l2.demand_misses::cpu.data            16667860                       # number of demand (read+write) misses
system.l2.demand_misses::total               16670976                       # number of demand (read+write) misses
system.l2.overall_misses::cpu.inst               3116                       # number of overall misses
system.l2.overall_misses::cpu.data           16667860                       # number of overall misses
system.l2.overall_misses::total              16670976                       # number of overall misses
system.l2.ReadExReq_miss_latency::cpu.data 1380831728500                       # number of ReadExReq miss cycles
system.l2.ReadExReq_miss_latency::total  1380831728500                       # number of ReadExReq miss cycles
system.l2.ReadCleanReq_miss_latency::cpu.inst    338665500                       # number of ReadCleanReq miss cycles
system.l2.ReadCleanReq_miss_latency::total    338665500                       # number of ReadCleanReq miss cycles
system.l2.ReadSharedReq_miss_latency::cpu.data  24797325000                       # number of ReadSharedReq miss cycles
system.l2.ReadSharedReq_miss_latency::total  24797325000                       # number of ReadSharedReq miss cycles
system.l2.demand_miss_latency::cpu.inst     338665500                       # number of demand (read+write) miss cycles
system.l2.demand_miss_latency::cpu.data  1405629053500                       # number of demand (read+write) miss cycles
system.l2.demand_miss_latency::total     1405967719000                       # number of demand (read+write) miss cycles
system.l2.overall_miss_latency::cpu.inst    338665500                       # number of overall miss cycles
system.l2.overall_miss_latency::cpu.data 1405629053500                       # number of overall miss cycles
system.l2.overall_miss_latency::total    1405967719000                       # number of overall miss cycles
system.l2.WritebackDirty_accesses::writebacks     16754145                       # number of WritebackDirty accesses(hits+misses)
system.l2.WritebackDirty_accesses::total     16754145                       # number of WritebackDirty accesses(hits+misses)
system.l2.WritebackClean_accesses::writebacks        70752                       # number of WritebackClean accesses(hits+misses)
system.l2.WritebackClean_accesses::total        70752                       # number of WritebackClean accesses(hits+misses)
system.l2.ReadExReq_accesses::cpu.data       16664164                       # number of ReadExReq accesses(hits+misses)
system.l2.ReadExReq_accesses::total          16664164                       # number of ReadExReq accesses(hits+misses)
system.l2.ReadCleanReq_accesses::cpu.inst        72766                       # number of ReadCleanReq accesses(hits+misses)
system.l2.ReadCleanReq_accesses::total          72766                       # number of ReadCleanReq accesses(hits+misses)
system.l2.ReadSharedReq_accesses::cpu.data       134162                       # number of ReadSharedReq accesses(hits+misses)
system.l2.ReadSharedReq_accesses::total        134162                       # number of ReadSharedReq accesses(hits+misses)
system.l2.demand_accesses::cpu.inst             72766                       # number of demand (read+write) accesses
system.l2.demand_accesses::cpu.data          16798326                       # number of demand (read+write) accesses
system.l2.demand_accesses::total             16871092                       # number of demand (read+write) accesses
system.l2.overall_accesses::cpu.inst            72766                       # number of overall (read+write) accesses
system.l2.overall_accesses::cpu.data         16798326                       # number of overall (read+write) accesses
system.l2.overall_accesses::total            16871092                       # number of overall (read+write) accesses
system.l2.ReadExReq_miss_rate::cpu.data      0.995431                       # miss rate for ReadExReq accesses
system.l2.ReadExReq_miss_rate::total         0.995431                       # miss rate for ReadExReq accesses
system.l2.ReadCleanReq_miss_rate::cpu.inst     0.042822                       # miss rate for ReadCleanReq accesses
system.l2.ReadCleanReq_miss_rate::total      0.042822                       # miss rate for ReadCleanReq accesses
system.l2.ReadSharedReq_miss_rate::cpu.data     0.595012                       # miss rate for ReadSharedReq accesses
system.l2.ReadSharedReq_miss_rate::total     0.595012                       # miss rate for ReadSharedReq accesses
system.l2.demand_miss_rate::cpu.inst         0.042822                       # miss rate for demand accesses
system.l2.demand_miss_rate::cpu.data         0.992233                       # miss rate for demand accesses
system.l2.demand_miss_rate::total            0.988139                       # miss rate for demand accesses
system.l2.overall_miss_rate::cpu.inst        0.042822                       # miss rate for overall accesses
system.l2.overall_miss_rate::cpu.data        0.992233                       # miss rate for overall accesses
system.l2.overall_miss_rate::total           0.988139                       # miss rate for overall accesses
system.l2.ReadExReq_avg_miss_latency::cpu.data 83242.649188                       # average ReadExReq miss latency
system.l2.ReadExReq_avg_miss_latency::total 83242.649188                       # average ReadExReq miss latency
system.l2.ReadCleanReq_avg_miss_latency::cpu.inst 108685.975610                       # average ReadCleanReq miss latency
system.l2.ReadCleanReq_avg_miss_latency::total 108685.975610                       # average ReadCleanReq miss latency
system.l2.ReadSharedReq_avg_miss_latency::cpu.data 310634.426517                       # average ReadSharedReq miss latency
system.l2.ReadSharedReq_avg_miss_latency::total 310634.426517                       # average ReadSharedReq miss latency
system.l2.demand_avg_miss_latency::cpu.inst 108685.975610                       # average overall miss latency
system.l2.demand_avg_miss_latency::cpu.data 84331.705060                       # average overall miss latency
system.l2.demand_avg_miss_latency::total 84336.257157                       # average overall miss latency
system.l2.overall_avg_miss_latency::cpu.inst 108685.975610                       # average overall miss latency
system.l2.overall_avg_miss_latency::cpu.data 84331.705060                       # average overall miss latency
system.l2.overall_avg_miss_latency::total 84336.257157                       # average overall miss latency
system.l2.blocked_cycles::no_mshrs                  0                       # number of cycles access was blocked
system.l2.blocked_cycles::no_targets                0                       # number of cycles access was blocked
system.l2.blocked::no_mshrs                         0                       # number of cycles access was blocked
system.l2.blocked::no_targets                       0                       # number of cycles access was blocked
system.l2.avg_blocked_cycles::no_mshrs            nan                       # average number of cycles each access was blocked
system.l2.avg_blocked_cycles::no_targets          nan                       # average number of cycles each access was blocked
system.l2.writebacks::writebacks             16624999                       # number of writebacks
system.l2.writebacks::total                  16624999                       # number of writebacks
system.l2.CleanEvict_mshr_misses::writebacks          547                       # number of CleanEvict MSHR misses
system.l2.CleanEvict_mshr_misses::total           547                       # number of CleanEvict MSHR misses
system.l2.ReadExReq_mshr_misses::cpu.data     16588032                       # number of ReadExReq MSHR misses
system.l2.ReadExReq_mshr_misses::total       16588032                       # number of ReadExReq MSHR misses
system.l2.ReadCleanReq_mshr_misses::cpu.inst         3116                       # number of ReadCleanReq MSHR misses
system.l2.ReadCleanReq_mshr_misses::total         3116                       # number of ReadCleanReq MSHR misses
system.l2.ReadSharedReq_mshr_misses::cpu.data        79828                       # number of ReadSharedReq MSHR misses
system.l2.ReadSharedReq_mshr_misses::total        79828                       # number of ReadSharedReq MSHR misses
system.l2.demand_mshr_misses::cpu.inst           3116                       # number of demand (read+write) MSHR misses
system.l2.demand_mshr_misses::cpu.data       16667860                       # number of demand (read+write) MSHR misses
system.l2.demand_mshr_misses::total          16670976                       # number of demand (read+write) MSHR misses
system.l2.overall_mshr_misses::cpu.inst          3116                       # number of overall MSHR misses
system.l2.overall_mshr_misses::cpu.data      16667860                       # number of overall MSHR misses
system.l2.overall_mshr_misses::total         16670976                       # number of overall MSHR misses
system.l2.ReadExReq_mshr_miss_latency::cpu.data 1214951408500                       # number of ReadExReq MSHR miss cycles
system.l2.ReadExReq_mshr_miss_latency::total 1214951408500                       # number of ReadExReq MSHR miss cycles
system.l2.ReadCleanReq_mshr_miss_latency::cpu.inst    307505500                       # number of ReadCleanReq MSHR miss cycles
system.l2.ReadCleanReq_mshr_miss_latency::total    307505500                       # number of ReadCleanReq MSHR miss cycles
system.l2.ReadSharedReq_mshr_miss_latency::cpu.data  23999045000                       # number of ReadSharedReq MSHR miss cycles
system.l2.ReadSharedReq_mshr_miss_latency::total  23999045000                       # number of ReadSharedReq MSHR miss cycles
system.l2.demand_mshr_miss_latency::cpu.inst    307505500                       # number of demand (read+write) MSHR miss cycles
system.l2.demand_mshr_miss_latency::cpu.data 1238950453500                       # number of demand (read+write) MSHR miss cycles
system.l2.demand_mshr_miss_latency::total 1239257959000                       # number of demand (read+write) MSHR miss cycles
system.l2.overall_mshr_miss_latency::cpu.inst    307505500                       # number of overall MSHR miss cycles
system.l2.overall_mshr_miss_latency::cpu.data 1238950453500                       # number of overall MSHR miss cycles
system.l2.overall_mshr_miss_latency::total 1239257959000                       # number of overall MSHR miss cycles
system.l2.CleanEvict_mshr_miss_rate::writebacks          inf                       # mshr miss rate for CleanEvict accesses
system.l2.CleanEvict_mshr_miss_rate::total          inf                       # mshr miss rate for CleanEvict accesses
system.l2.ReadExReq_mshr_miss_rate::cpu.data     0.995431                       # mshr miss rate for ReadExReq accesses
system.l2.ReadExReq_mshr_miss_rate::total     0.995431                       # mshr miss rate for ReadExReq accesses
system.l2.ReadCleanReq_mshr_miss_rate::cpu.inst     0.042822                       # mshr miss rate for ReadCleanReq accesses
system.l2.ReadCleanReq_mshr_miss_rate::total     0.042822                       # mshr miss rate for ReadCleanReq accesses
system.l2.ReadSharedReq_mshr_miss_rate::cpu.data     0.595012                       # mshr miss rate for ReadSharedReq accesses
system.l2.ReadSharedReq_mshr_miss_rate::total     0.595012                       # mshr miss rate for ReadSharedReq accesses
system.l2.demand_mshr_miss_rate::cpu.inst     0.042822                       # mshr miss rate for demand accesses
system.l2.demand_mshr_miss_rate::cpu.data     0.992233                       # mshr miss rate for demand accesses
system.l2.demand_mshr_miss_rate::total       0.988139                       # mshr miss rate for demand accesses
system.l2.overall_mshr_miss_rate::cpu.inst     0.042822                       # mshr miss rate for overall accesses
system.l2.overall_mshr_miss_rate::cpu.data     0.992233                       # mshr miss rate for overall accesses
system.l2.overall_mshr_miss_rate::total      0.988139                       # mshr miss rate for overall accesses
system.l2.ReadExReq_avg_mshr_miss_latency::cpu.data 73242.649188                       # average ReadExReq mshr miss latency
system.l2.ReadExReq_avg_mshr_miss_latency::total 73242.649188                       # average ReadExReq mshr miss latency
system.l2.ReadCleanReq_avg_mshr_miss_latency::cpu.inst 98685.975610                       # average ReadCleanReq mshr miss latency
system.l2.ReadCleanReq_avg_mshr_miss_latency::total 98685.975610                       # average ReadCleanReq mshr miss latency
system.l2.ReadSharedReq_avg_mshr_miss_latency::cpu.data 300634.426517                       # average ReadSharedReq mshr miss latency
system.l2.ReadSharedReq_avg_mshr_miss_latency::total 300634.426517                       # average ReadSharedReq mshr miss latency
system.l2.demand_avg_mshr_miss_latency::cpu.inst 98685.975610                       # average overall mshr miss latency
system.l2.demand_avg_mshr_miss_latency::cpu.data 74331.705060                       # average overall mshr miss latency
system.l2.demand_avg_mshr_miss_latency::total 74336.257157                       # average overall mshr miss latency
system.l2.overall_avg_mshr_miss_latency::cpu.inst 98685.975610                       # average overall mshr miss latency
system.l2.overall_avg_mshr_miss_latency::cpu.data 74331.705060                       # average overall mshr miss latency
system.l2.overall_avg_mshr_miss_latency::total 74336.257157                       # average overall mshr miss latency
system.membus.snoop_filter.tot_requests      33307350                       # Total number of requests made to the snoop filter.
system.membus.snoop_filter.hit_single_requests     16636374                       # Number of requests hitting in the snoop filter with a single holder of the requested data.
system.membus.snoop_filter.hit_multi_requests            0                       # Number of requests hitting in the snoop filter with multiple (>1) holders of the requested data.
system.membus.snoop_filter.tot_snoops               0                       # Total number of snoops made to the snoop filter.
system.membus.snoop_filter.hit_single_snoops            0                       # Number of snoops hitting in the snoop filter with a single holder of the requested data.
system.membus.snoop_filter.hit_multi_snoops            0                       # Number of snoops hitting in the snoop filter with multiple (>1) holders of the requested data.
system.membus.pwrStateResidencyTicks::UNDEFINED 2380403359500                       # Cumulative time (in ticks) in various power states
system.membus.trans_dist::ReadResp              82944                       # Transaction distribution
system.membus.trans_dist::WritebackDirty     16624999                       # Transaction distribution
system.membus.trans_dist::CleanEvict            11375                       # Transaction distribution
system.membus.trans_dist::ReadExReq          16588032                       # Transaction distribution
system.membus.trans_dist::ReadExResp         16588032                       # Transaction distribution
system.membus.trans_dist::ReadSharedReq         82944                       # Transaction distribution
system.membus.pkt_count_system.l2.mem_side::system.mem_ctrls.port     49978326                       # Packet count per connected master and slave (bytes)
system.membus.pkt_count_system.l2.mem_side::total     49978326                       # Packet count per connected master and slave (bytes)
system.membus.pkt_count::total               49978326                       # Packet count per connected master and slave (bytes)
system.membus.pkt_size_system.l2.mem_side::system.mem_ctrls.port   1065471200                       # Cumulative packet size per connected master and slave (bytes)
system.membus.pkt_size_system.l2.mem_side::total   1065471200                       # Cumulative packet size per connected master and slave (bytes)
system.membus.pkt_size::total              1065471200                       # Cumulative packet size per connected master and slave (bytes)
system.membus.snoops                                0                       # Total snoops (count)
system.membus.snoopTraffic                          0                       # Total snoop traffic (bytes)
system.membus.snoop_fanout::samples          16670976                       # Request fanout histogram
system.membus.snoop_fanout::mean                    0                       # Request fanout histogram
system.membus.snoop_fanout::stdev                   0                       # Request fanout histogram
system.membus.snoop_fanout::underflows              0      0.00%      0.00% # Request fanout histogram
system.membus.snoop_fanout::0                16670976    100.00%    100.00% # Request fanout histogram
system.membus.snoop_fanout::1                       0      0.00%    100.00% # Request fanout histogram
system.membus.snoop_fanout::overflows               0      0.00%    100.00% # Request fanout histogram
system.membus.snoop_fanout::min_value               0                       # Request fanout histogram
system.membus.snoop_fanout::max_value               0                       # Request fanout histogram
system.membus.snoop_fanout::total            16670976                       # Request fanout histogram
system.membus.reqLayer2.occupancy         66557370500                       # Layer occupancy (ticks)
system.membus.reqLayer2.utilization               2.8                       # Layer utilization (%)
system.membus.respLayer1.occupancy        54443598250                       # Layer occupancy (ticks)
system.membus.respLayer1.utilization              2.3                       # Layer utilization (%)
system.tol2bus.snoop_filter.tot_requests     33738122                       # Total number of requests made to the snoop filter.
system.tol2bus.snoop_filter.hit_single_requests     16867030                       # Number of requests hitting in the snoop filter with a single holder of the requested data.
system.tol2bus.snoop_filter.hit_multi_requests            0                       # Number of requests hitting in the snoop filter with multiple (>1) holders of the requested data.
system.tol2bus.snoop_filter.tot_snoops           5111                       # Total number of snoops made to the snoop filter.
system.tol2bus.snoop_filter.hit_single_snoops         5111                       # Number of snoops hitting in the snoop filter with a single holder of the requested data.
system.tol2bus.snoop_filter.hit_multi_snoops            0                       # Number of snoops hitting in the snoop filter with multiple (>1) holders of the requested data.
system.tol2bus.pwrStateResidencyTicks::UNDEFINED 2380403359500                       # Cumulative time (in ticks) in various power states
system.tol2bus.trans_dist::ReadResp            206928                       # Transaction distribution
system.tol2bus.trans_dist::WritebackDirty     33379144                       # Transaction distribution
system.tol2bus.trans_dist::WritebackClean        70752                       # Transaction distribution
system.tol2bus.trans_dist::CleanEvict           58072                       # Transaction distribution
system.tol2bus.trans_dist::ReadExReq         16664164                       # Transaction distribution
system.tol2bus.trans_dist::ReadExResp        16664164                       # Transaction distribution
system.tol2bus.trans_dist::ReadCleanReq         72766                       # Transaction distribution
system.tol2bus.trans_dist::ReadSharedReq       134162                       # Transaction distribution
system.tol2bus.pkt_count_system.cpu.icache.mem_side::system.l2.cpu_side       216284                       # Packet count per connected master and slave (bytes)
system.tol2bus.pkt_count_system.cpu.dcache.mem_side::system.l2.cpu_side     50392930                       # Packet count per connected master and slave (bytes)
system.tol2bus.pkt_count::total              50609214                       # Packet count per connected master and slave (bytes)
system.tol2bus.pkt_size_system.cpu.icache.mem_side::system.l2.cpu_side      4592576                       # Cumulative packet size per connected master and slave (bytes)
system.tol2bus.pkt_size_system.cpu.dcache.mem_side::system.l2.cpu_side   1073679072                       # Cumulative packet size per connected master and slave (bytes)
system.tol2bus.pkt_size::total             1078271648                       # Cumulative packet size per connected master and slave (bytes)
system.tol2bus.snoops                        16640938                       # Total snoops (count)
system.tol2bus.snoopTraffic                 531999968                       # Total snoop traffic (bytes)
system.tol2bus.snoop_fanout::samples         33512030                       # Request fanout histogram
system.tol2bus.snoop_fanout::mean            0.000153                       # Request fanout histogram
system.tol2bus.snoop_fanout::stdev           0.012349                       # Request fanout histogram
system.tol2bus.snoop_fanout::underflows             0      0.00%      0.00% # Request fanout histogram
system.tol2bus.snoop_fanout::0               33506919     99.98%     99.98% # Request fanout histogram
system.tol2bus.snoop_fanout::1                   5111      0.02%    100.00% # Request fanout histogram
system.tol2bus.snoop_fanout::2                      0      0.00%    100.00% # Request fanout histogram
system.tol2bus.snoop_fanout::3                      0      0.00%    100.00% # Request fanout histogram
system.tol2bus.snoop_fanout::4                      0      0.00%    100.00% # Request fanout histogram
system.tol2bus.snoop_fanout::overflows              0      0.00%    100.00% # Request fanout histogram
system.tol2bus.snoop_fanout::min_value              0                       # Request fanout histogram
system.tol2bus.snoop_fanout::max_value              1                       # Request fanout histogram
system.tol2bus.snoop_fanout::total           33512030                       # Request fanout histogram
system.tol2bus.reqLayer0.occupancy        25281509500                       # Layer occupancy (ticks)
system.tol2bus.reqLayer0.utilization              1.1                       # Layer utilization (%)
system.tol2bus.respLayer0.occupancy          72766000                       # Layer occupancy (ticks)
system.tol2bus.respLayer0.utilization             0.0                       # Layer utilization (%)
system.tol2bus.respLayer1.occupancy       16798326000                       # Layer occupancy (ticks)
system.tol2bus.respLayer1.utilization             0.7                       # Layer utilization (%)

---------- End Simulation Statistics   ----------
