
---------- Begin Simulation Statistics ----------
sim_seconds                                  1.719566                       # Number of seconds simulated
sim_ticks                                1719566298500                       # Number of ticks simulated
final_tick                               1719566298500                       # Number of ticks from beginning of simulation (restored from checkpoints and never reset)
sim_freq                                 1000000000000                       # Frequency of simulated ticks
host_inst_rate                                 384477                       # Simulator instruction rate (inst/s)
host_op_rate                                   633130                       # Simulator op (including micro ops) rate (op/s)
host_tick_rate                             1322265674                       # Simulator tick rate (ticks/s)
host_mem_usage                                 665968                       # Number of bytes of host memory used
host_seconds                                  1300.47                       # Real time elapsed on the host
sim_insts                                   500000000                       # Number of instructions simulated
sim_ops                                     823366692                       # Number of ops (including micro ops) simulated
system.voltage_domain.voltage                       1                       # Voltage in Volts
system.clk_domain.clock                          1000                       # Clock period in ticks
system.mem_ctrls.pwrStateResidencyTicks::UNDEFINED 1719566298500                       # Cumulative time (in ticks) in various power states
system.mem_ctrls.bytes_read::cpu.inst          166208                       # Number of bytes read from this memory
system.mem_ctrls.bytes_read::cpu.data       536071552                       # Number of bytes read from this memory
system.mem_ctrls.bytes_read::total          536237760                       # Number of bytes read from this memory
system.mem_ctrls.bytes_inst_read::cpu.inst       166208                       # Number of instructions bytes read from this memory
system.mem_ctrls.bytes_inst_read::total        166208                       # Number of instructions bytes read from this memory
system.mem_ctrls.bytes_written::writebacks    534148608                       # Number of bytes written to this memory
system.mem_ctrls.bytes_written::total       534148608                       # Number of bytes written to this memory
system.mem_ctrls.num_reads::cpu.inst             2597                       # Number of read requests responded to by this memory
system.mem_ctrls.num_reads::cpu.data          8376118                       # Number of read requests responded to by this memory
system.mem_ctrls.num_reads::total             8378715                       # Number of read requests responded to by this memory
system.mem_ctrls.num_writes::writebacks       8346072                       # Number of write requests responded to by this memory
system.mem_ctrls.num_writes::total            8346072                       # Number of write requests responded to by this memory
system.mem_ctrls.bw_read::cpu.inst              96657                       # Total read bandwidth from this memory (bytes/s)
system.mem_ctrls.bw_read::cpu.data          311748115                       # Total read bandwidth from this memory (bytes/s)
system.mem_ctrls.bw_read::total             311844772                       # Total read bandwidth from this memory (bytes/s)
system.mem_ctrls.bw_inst_read::cpu.inst         96657                       # Instruction read bandwidth from this memory (bytes/s)
system.mem_ctrls.bw_inst_read::total            96657                       # Instruction read bandwidth from this memory (bytes/s)
system.mem_ctrls.bw_write::writebacks       310629842                       # Write bandwidth from this memory (bytes/s)
system.mem_ctrls.bw_write::total            310629842                       # Write bandwidth from this memory (bytes/s)
system.mem_ctrls.bw_total::writebacks       310629842                       # Total bandwidth to/from this memory (bytes/s)
system.mem_ctrls.bw_total::cpu.inst             96657                       # Total bandwidth to/from this memory (bytes/s)
system.mem_ctrls.bw_total::cpu.data         311748115                       # Total bandwidth to/from this memory (bytes/s)
system.mem_ctrls.bw_total::total            622474614                       # Total bandwidth to/from this memory (bytes/s)
system.mem_ctrls.readReqs                     8378715                       # Number of read requests accepted
system.mem_ctrls.writeReqs                    8346072                       # Number of write requests accepted
system.mem_ctrls.readBursts                   8378715                       # Number of DRAM read bursts, including those serviced by the write queue
system.mem_ctrls.writeBursts                  8346072                       # Number of DRAM write bursts, including those merged in the write queue
system.mem_ctrls.bytesReadDRAM              536235328                       # Total number of bytes read from DRAM
system.mem_ctrls.bytesReadWrQ                    2432                       # Total number of bytes read from write queue
system.mem_ctrls.bytesWritten               534146816                       # Total number of bytes written to DRAM
system.mem_ctrls.bytesReadSys               536237760                       # Total read bytes from the system interface side
system.mem_ctrls.bytesWrittenSys            534148608                       # Total written bytes from the system interface side
system.mem_ctrls.servicedByWrQ                     38                       # Number of DRAM read bursts serviced by the write queue
system.mem_ctrls.mergedWrBursts                     0                       # Number of DRAM write bursts merged with an existing one
system.mem_ctrls.neitherReadNorWriteReqs            0                       # Number of requests that are neither read nor write
system.mem_ctrls.perBankRdBursts::0            523446                       # Per bank write bursts
system.mem_ctrls.perBankRdBursts::1            523196                       # Per bank write bursts
system.mem_ctrls.perBankRdBursts::2            523377                       # Per bank write bursts
system.mem_ctrls.perBankRdBursts::3            523944                       # Per bank write bursts
system.mem_ctrls.perBankRdBursts::4            523841                       # Per bank write bursts
system.mem_ctrls.perBankRdBursts::5            523773                       # Per bank write bursts
system.mem_ctrls.perBankRdBursts::6            523622                       # Per bank write bursts
system.mem_ctrls.perBankRdBursts::7            523707                       # Per bank write bursts
system.mem_ctrls.perBankRdBursts::8            523183                       # Per bank write bursts
system.mem_ctrls.perBankRdBursts::9            523601                       # Per bank write bursts
system.mem_ctrls.perBankRdBursts::10           523748                       # Per bank write bursts
system.mem_ctrls.perBankRdBursts::11           524097                       # Per bank write bursts
system.mem_ctrls.perBankRdBursts::12           523947                       # Per bank write bursts
system.mem_ctrls.perBankRdBursts::13           523788                       # Per bank write bursts
system.mem_ctrls.perBankRdBursts::14           523617                       # Per bank write bursts
system.mem_ctrls.perBankRdBursts::15           523790                       # Per bank write bursts
system.mem_ctrls.perBankWrBursts::0            521541                       # Per bank write bursts
system.mem_ctrls.perBankWrBursts::1            521339                       # Per bank write bursts
system.mem_ctrls.perBankWrBursts::2            521563                       # Per bank write bursts
system.mem_ctrls.perBankWrBursts::3            521823                       # Per bank write bursts
system.mem_ctrls.perBankWrBursts::4            521637                       # Per bank write bursts
system.mem_ctrls.perBankWrBursts::5            521807                       # Per bank write bursts
system.mem_ctrls.perBankWrBursts::6            521540                       # Per bank write bursts
system.mem_ctrls.perBankWrBursts::7            521573                       # Per bank write bursts
system.mem_ctrls.perBankWrBursts::8            521315                       # Per bank write bursts
system.mem_ctrls.perBankWrBursts::9            521482                       # Per bank write bursts
system.mem_ctrls.perBankWrBursts::10           521621                       # Per bank write bursts
system.mem_ctrls.perBankWrBursts::11           521784                       # Per bank write bursts
system.mem_ctrls.perBankWrBursts::12           521839                       # Per bank write bursts
system.mem_ctrls.perBankWrBursts::13           521815                       # Per bank write bursts
system.mem_ctrls.perBankWrBursts::14           521685                       # Per bank write bursts
system.mem_ctrls.perBankWrBursts::15           521680                       # Per bank write bursts
system.mem_ctrls.numRdRetry                         0                       # Number of times read queue was full causing retry
system.mem_ctrls.numWrRetry                         0                       # Number of times write queue was full causing retry
system.mem_ctrls.totGap                  1719542908500                       # Total gap between requests
system.mem_ctrls.readPktSize::0                     0                       # Read request sizes (log2)
system.mem_ctrls.readPktSize::1                     0                       # Read request sizes (log2)
system.mem_ctrls.readPktSize::2                     0                       # Read request sizes (log2)
system.mem_ctrls.readPktSize::3                     0                       # Read request sizes (log2)
system.mem_ctrls.readPktSize::4                     0                       # Read request sizes (log2)
system.mem_ctrls.readPktSize::5                     0                       # Read request sizes (log2)
system.mem_ctrls.readPktSize::6               8378715                       # Read request sizes (log2)
system.mem_ctrls.writePktSize::0                    0                       # Write request sizes (log2)
system.mem_ctrls.writePktSize::1                    0                       # Write request sizes (log2)
system.mem_ctrls.writePktSize::2                    0                       # Write request sizes (log2)
system.mem_ctrls.writePktSize::3                    0                       # Write request sizes (log2)
system.mem_ctrls.writePktSize::4                    0                       # Write request sizes (log2)
system.mem_ctrls.writePktSize::5                    0                       # Write request sizes (log2)
system.mem_ctrls.writePktSize::6              8346072                       # Write request sizes (log2)
system.mem_ctrls.rdQLenPdf::0                 8378676                       # What read queue length does an incoming req see
system.mem_ctrls.rdQLenPdf::1                       1                       # What read queue length does an incoming req see
system.mem_ctrls.rdQLenPdf::2                       0                       # What read queue length does an incoming req see
system.mem_ctrls.rdQLenPdf::3                       0                       # What read queue length does an incoming req see
system.mem_ctrls.rdQLenPdf::4                       0                       # What read queue length does an incoming req see
system.mem_ctrls.rdQLenPdf::5                       0                       # What read queue length does an incoming req see
system.mem_ctrls.rdQLenPdf::6                       0                       # What read queue length does an incoming req see
system.mem_ctrls.rdQLenPdf::7                       0                       # What read queue length does an incoming req see
system.mem_ctrls.rdQLenPdf::8                       0                       # What read queue length does an incoming req see
system.mem_ctrls.rdQLenPdf::9                       0                       # What read queue length does an incoming req see
system.mem_ctrls.rdQLenPdf::10                      0                       # What read queue length does an incoming req see
system.mem_ctrls.rdQLenPdf::11                      0                       # What read queue length does an incoming req see
system.mem_ctrls.rdQLenPdf::12                      0                       # What read queue length does an incoming req see
system.mem_ctrls.rdQLenPdf::13                      0                       # What read queue length does an incoming req see
system.mem_ctrls.rdQLenPdf::14                      0                       # What read queue length does an incoming req see
system.mem_ctrls.rdQLenPdf::15                      0                       # What read queue length does an incoming req see
system.mem_ctrls.rdQLenPdf::16                      0                       # What read queue length does an incoming req see
system.mem_ctrls.rdQLenPdf::17                      0                       # What read queue length does an incoming req see
system.mem_ctrls.rdQLenPdf::18                      0                       # What read queue length does an incoming req see
system.mem_ctrls.rdQLenPdf::19                      0                       # What read queue length does an incoming req see
system.mem_ctrls.rdQLenPdf::20                      0                       # What read queue length does an incoming req see
system.mem_ctrls.rdQLenPdf::21                      0                       # What read queue length does an incoming req see
system.mem_ctrls.rdQLenPdf::22                      0                       # What read queue length does an incoming req see
system.mem_ctrls.rdQLenPdf::23                      0                       # What read queue length does an incoming req see
system.mem_ctrls.rdQLenPdf::24                      0                       # What read queue length does an incoming req see
system.mem_ctrls.rdQLenPdf::25                      0                       # What read queue length does an incoming req see
system.mem_ctrls.rdQLenPdf::26                      0                       # What read queue length does an incoming req see
system.mem_ctrls.rdQLenPdf::27                      0                       # What read queue length does an incoming req see
system.mem_ctrls.rdQLenPdf::28                      0                       # What read queue length does an incoming req see
system.mem_ctrls.rdQLenPdf::29                      0                       # What read queue length does an incoming req see
system.mem_ctrls.rdQLenPdf::30                      0                       # What read queue length does an incoming req see
system.mem_ctrls.rdQLenPdf::31                      0                       # What read queue length does an incoming req see
system.mem_ctrls.wrQLenPdf::0                       1                       # What write queue length does an incoming req see
system.mem_ctrls.wrQLenPdf::1                       1                       # What write queue length does an incoming req see
system.mem_ctrls.wrQLenPdf::2                       1                       # What write queue length does an incoming req see
system.mem_ctrls.wrQLenPdf::3                       1                       # What write queue length does an incoming req see
system.mem_ctrls.wrQLenPdf::4                       1                       # What write queue length does an incoming req see
system.mem_ctrls.wrQLenPdf::5                       1                       # What write queue length does an incoming req see
system.mem_ctrls.wrQLenPdf::6                       1                       # What write queue length does an incoming req see
system.mem_ctrls.wrQLenPdf::7                       1                       # What write queue length does an incoming req see
system.mem_ctrls.wrQLenPdf::8                       1                       # What write queue length does an incoming req see
system.mem_ctrls.wrQLenPdf::9                       1                       # What write queue length does an incoming req see
system.mem_ctrls.wrQLenPdf::10                      1                       # What write queue length does an incoming req see
system.mem_ctrls.wrQLenPdf::11                      1                       # What write queue length does an incoming req see
system.mem_ctrls.wrQLenPdf::12                      1                       # What write queue length does an incoming req see
system.mem_ctrls.wrQLenPdf::13                      1                       # What write queue length does an incoming req see
system.mem_ctrls.wrQLenPdf::14                      1                       # What write queue length does an incoming req see
system.mem_ctrls.wrQLenPdf::15                   5039                       # What write queue length does an incoming req see
system.mem_ctrls.wrQLenPdf::16                   5076                       # What write queue length does an incoming req see
system.mem_ctrls.wrQLenPdf::17                 520950                       # What write queue length does an incoming req see
system.mem_ctrls.wrQLenPdf::18                 520995                       # What write queue length does an incoming req see
system.mem_ctrls.wrQLenPdf::19                 520994                       # What write queue length does an incoming req see
system.mem_ctrls.wrQLenPdf::20                 520995                       # What write queue length does an incoming req see
system.mem_ctrls.wrQLenPdf::21                 520996                       # What write queue length does an incoming req see
system.mem_ctrls.wrQLenPdf::22                 520995                       # What write queue length does an incoming req see
system.mem_ctrls.wrQLenPdf::23                 520996                       # What write queue length does an incoming req see
system.mem_ctrls.wrQLenPdf::24                 520996                       # What write queue length does an incoming req see
system.mem_ctrls.wrQLenPdf::25                 520995                       # What write queue length does an incoming req see
system.mem_ctrls.wrQLenPdf::26                 520998                       # What write queue length does an incoming req see
system.mem_ctrls.wrQLenPdf::27                 521003                       # What write queue length does an incoming req see
system.mem_ctrls.wrQLenPdf::28                 520998                       # What write queue length does an incoming req see
system.mem_ctrls.wrQLenPdf::29                 521048                       # What write queue length does an incoming req see
system.mem_ctrls.wrQLenPdf::30                 520996                       # What write queue length does an incoming req see
system.mem_ctrls.wrQLenPdf::31                 520993                       # What write queue length does an incoming req see
system.mem_ctrls.wrQLenPdf::32                 520993                       # What write queue length does an incoming req see
system.mem_ctrls.wrQLenPdf::33                      1                       # What write queue length does an incoming req see
system.mem_ctrls.wrQLenPdf::34                      0                       # What write queue length does an incoming req see
system.mem_ctrls.wrQLenPdf::35                      0                       # What write queue length does an incoming req see
system.mem_ctrls.wrQLenPdf::36                      0                       # What write queue length does an incoming req see
system.mem_ctrls.wrQLenPdf::37                      0                       # What write queue length does an incoming req see
system.mem_ctrls.wrQLenPdf::38                      0                       # What write queue length does an incoming req see
system.mem_ctrls.wrQLenPdf::39                      0                       # What write queue length does an incoming req see
system.mem_ctrls.wrQLenPdf::40                      0                       # What write queue length does an incoming req see
system.mem_ctrls.wrQLenPdf::41                      0                       # What write queue length does an incoming req see
system.mem_ctrls.wrQLenPdf::42                      0                       # What write queue length does an incoming req see
system.mem_ctrls.wrQLenPdf::43                      0                       # What write queue length does an incoming req see
system.mem_ctrls.wrQLenPdf::44                      0                       # What write queue length does an incoming req see
system.mem_ctrls.wrQLenPdf::45                      0                       # What write queue length does an incoming req see
system.mem_ctrls.wrQLenPdf::46                      0                       # What write queue length does an incoming req see
system.mem_ctrls.wrQLenPdf::47                      0                       # What write queue length does an incoming req see
system.mem_ctrls.wrQLenPdf::48                      0                       # What write queue length does an incoming req see
system.mem_ctrls.wrQLenPdf::49                      0                       # What write queue length does an incoming req see
system.mem_ctrls.wrQLenPdf::50                      0                       # What write queue length does an incoming req see
system.mem_ctrls.wrQLenPdf::51                      0                       # What write queue length does an incoming req see
system.mem_ctrls.wrQLenPdf::52                      0                       # What write queue length does an incoming req see
system.mem_ctrls.wrQLenPdf::53                      0                       # What write queue length does an incoming req see
system.mem_ctrls.wrQLenPdf::54                      0                       # What write queue length does an incoming req see
system.mem_ctrls.wrQLenPdf::55                      0                       # What write queue length does an incoming req see
system.mem_ctrls.wrQLenPdf::56                      0                       # What write queue length does an incoming req see
system.mem_ctrls.wrQLenPdf::57                      0                       # What write queue length does an incoming req see
system.mem_ctrls.wrQLenPdf::58                      0                       # What write queue length does an incoming req see
system.mem_ctrls.wrQLenPdf::59                      0                       # What write queue length does an incoming req see
system.mem_ctrls.wrQLenPdf::60                      0                       # What write queue length does an incoming req see
system.mem_ctrls.wrQLenPdf::61                      0                       # What write queue length does an incoming req see
system.mem_ctrls.wrQLenPdf::62                      0                       # What write queue length does an incoming req see
system.mem_ctrls.wrQLenPdf::63                      0                       # What write queue length does an incoming req see
system.mem_ctrls.bytesPerActivate::samples      1426760                       # Bytes accessed per row activation
system.mem_ctrls.bytesPerActivate::mean    750.218778                       # Bytes accessed per row activation
system.mem_ctrls.bytesPerActivate::gmean   562.327690                       # Bytes accessed per row activation
system.mem_ctrls.bytesPerActivate::stdev   371.036082                       # Bytes accessed per row activation
system.mem_ctrls.bytesPerActivate::0-127       178688     12.52%     12.52% # Bytes accessed per row activation
system.mem_ctrls.bytesPerActivate::128-255        65097      4.56%     17.09% # Bytes accessed per row activation
system.mem_ctrls.bytesPerActivate::256-383        70315      4.93%     22.01% # Bytes accessed per row activation
system.mem_ctrls.bytesPerActivate::384-511        66505      4.66%     26.68% # Bytes accessed per row activation
system.mem_ctrls.bytesPerActivate::512-639        71200      4.99%     31.67% # Bytes accessed per row activation
system.mem_ctrls.bytesPerActivate::640-767        60560      4.24%     35.91% # Bytes accessed per row activation
system.mem_ctrls.bytesPerActivate::768-895        47735      3.35%     39.26% # Bytes accessed per row activation
system.mem_ctrls.bytesPerActivate::896-1023        42464      2.98%     42.23% # Bytes accessed per row activation
system.mem_ctrls.bytesPerActivate::1024-1151       824196     57.77%    100.00% # Bytes accessed per row activation
system.mem_ctrls.bytesPerActivate::total      1426760                       # Bytes accessed per row activation
system.mem_ctrls.rdPerTurnAround::samples       520993                       # Reads before turning the bus around for writes
system.mem_ctrls.rdPerTurnAround::mean      16.082084                       # Reads before turning the bus around for writes
system.mem_ctrls.rdPerTurnAround::gmean     16.043855                       # Reads before turning the bus around for writes
system.mem_ctrls.rdPerTurnAround::stdev     14.547704                       # Reads before turning the bus around for writes
system.mem_ctrls.rdPerTurnAround::0-511        520989    100.00%    100.00% # Reads before turning the bus around for writes
system.mem_ctrls.rdPerTurnAround::1024-1535            1      0.00%    100.00% # Reads before turning the bus around for writes
system.mem_ctrls.rdPerTurnAround::1536-2047            2      0.00%    100.00% # Reads before turning the bus around for writes
system.mem_ctrls.rdPerTurnAround::9728-10239            1      0.00%    100.00% # Reads before turning the bus around for writes
system.mem_ctrls.rdPerTurnAround::total        520993                       # Reads before turning the bus around for writes
system.mem_ctrls.wrPerTurnAround::samples       520993                       # Writes before turning the bus around for reads
system.mem_ctrls.wrPerTurnAround::mean      16.019494                       # Writes before turning the bus around for reads
system.mem_ctrls.wrPerTurnAround::gmean     16.018375                       # Writes before turning the bus around for reads
system.mem_ctrls.wrPerTurnAround::stdev      0.196868                       # Writes before turning the bus around for reads
system.mem_ctrls.wrPerTurnAround::16           515913     99.02%     99.02% # Writes before turning the bus around for reads
system.mem_ctrls.wrPerTurnAround::17               41      0.01%     99.03% # Writes before turning the bus around for reads
system.mem_ctrls.wrPerTurnAround::18             5005      0.96%     99.99% # Writes before turning the bus around for reads
system.mem_ctrls.wrPerTurnAround::19               32      0.01%    100.00% # Writes before turning the bus around for reads
system.mem_ctrls.wrPerTurnAround::20                1      0.00%    100.00% # Writes before turning the bus around for reads
system.mem_ctrls.wrPerTurnAround::21                1      0.00%    100.00% # Writes before turning the bus around for reads
system.mem_ctrls.wrPerTurnAround::total        520993                       # Writes before turning the bus around for reads
system.mem_ctrls.totQLat                 164244507000                       # Total ticks spent queuing
system.mem_ctrls.totMemAccLat            321344700750                       # Total ticks spent from burst creation until serviced by the DRAM
system.mem_ctrls.totBusLat                41893385000                       # Total ticks spent in databus transfers
system.mem_ctrls.avgQLat                     19602.68                       # Average queueing delay per DRAM burst
system.mem_ctrls.avgBusLat                    5000.00                       # Average bus latency per DRAM burst
system.mem_ctrls.avgMemAccLat                38352.68                       # Average memory access latency per DRAM burst
system.mem_ctrls.avgRdBW                       311.84                       # Average DRAM read bandwidth in MiByte/s
system.mem_ctrls.avgWrBW                       310.63                       # Average achieved write bandwidth in MiByte/s
system.mem_ctrls.avgRdBWSys                    311.84                       # Average system read bandwidth in MiByte/s
system.mem_ctrls.avgWrBWSys                    310.63                       # Average system write bandwidth in MiByte/s
system.mem_ctrls.peakBW                      12800.00                       # Theoretical peak bandwidth in MiByte/s
system.mem_ctrls.busUtil                         4.86                       # Data bus utilization in percentage
system.mem_ctrls.busUtilRead                     2.44                       # Data bus utilization in percentage for reads
system.mem_ctrls.busUtilWrite                    2.43                       # Data bus utilization in percentage for writes
system.mem_ctrls.avgRdQLen                       1.00                       # Average read queue length when enqueuing
system.mem_ctrls.avgWrQLen                      25.25                       # Average write queue length when enqueuing
system.mem_ctrls.readRowHits                  7606886                       # Number of row buffer hits during reads
system.mem_ctrls.writeRowHits                 7691075                       # Number of row buffer hits during writes
system.mem_ctrls.readRowHitRate                 90.79                       # Row buffer hit rate for reads
system.mem_ctrls.writeRowHitRate                92.15                       # Row buffer hit rate for writes
system.mem_ctrls.avgGap                     102814.04                       # Average gap between requests
system.mem_ctrls.pageHitRate                    91.47                       # Row buffer hit rate, read and write combined
system.mem_ctrls_0.actEnergy               5097017520                       # Energy for activate commands per rank (pJ)
system.mem_ctrls_0.preEnergy               2709129060                       # Energy for precharge commands per rank (pJ)
system.mem_ctrls_0.readEnergy             29908788840                       # Energy for read commands per rank (pJ)
system.mem_ctrls_0.writeEnergy            21782136060                       # Energy for write commands per rank (pJ)
system.mem_ctrls_0.refreshEnergy         84327993360.000015                       # Energy for refresh commands per rank (pJ)
system.mem_ctrls_0.actBackEnergy          96810656490                       # Energy for active background per rank (pJ)
system.mem_ctrls_0.preBackEnergy           5831730240                       # Energy for precharge background per rank (pJ)
system.mem_ctrls_0.actPowerDownEnergy    201168252060                       # Energy for active power-down per rank (pJ)
system.mem_ctrls_0.prePowerDownEnergy     86862295200                       # Energy for precharge power-down per rank (pJ)
system.mem_ctrls_0.selfRefreshEnergy     211146503235                       # Energy for self refresh per rank (pJ)
system.mem_ctrls_0.totalEnergy           745671054345                       # Total energy per rank (pJ)
system.mem_ctrls_0.averagePower            433.639024                       # Core power per rank (mW)
system.mem_ctrls_0.totalIdleTime         1491922367750                       # Total Idle time Per DRAM Rank
system.mem_ctrls_0.memoryStateTime::IDLE   7585315250                       # Time in different power states
system.mem_ctrls_0.memoryStateTime::REF   35817780000                       # Time in different power states
system.mem_ctrls_0.memoryStateTime::SREF 824653796250                       # Time in different power states
system.mem_ctrls_0.memoryStateTime::PRE_PDN 226197169750                       # Time in different power states
system.mem_ctrls_0.memoryStateTime::ACT  184226155250                       # Time in different power states
system.mem_ctrls_0.memoryStateTime::ACT_PDN 441086082000                       # Time in different power states
system.mem_ctrls_1.actEnergy               5090048880                       # Energy for activate commands per rank (pJ)
system.mem_ctrls_1.preEnergy               2705425140                       # Energy for precharge commands per rank (pJ)
system.mem_ctrls_1.readEnergy             29914964940                       # Energy for read commands per rank (pJ)
system.mem_ctrls_1.writeEnergy            21784213620                       # Energy for write commands per rank (pJ)
system.mem_ctrls_1.refreshEnergy         83750846400.000015                       # Energy for refresh commands per rank (pJ)
system.mem_ctrls_1.actBackEnergy          96686643870                       # Energy for active background per rank (pJ)
system.mem_ctrls_1.preBackEnergy           5792194080                       # Energy for precharge background per rank (pJ)
system.mem_ctrls_1.actPowerDownEnergy    200061474510                       # Energy for active power-down per rank (pJ)
system.mem_ctrls_1.prePowerDownEnergy     86072772000                       # Energy for precharge power-down per rank (pJ)
system.mem_ctrls_1.selfRefreshEnergy     212125298730                       # Energy for self refresh per rank (pJ)
system.mem_ctrls_1.totalEnergy           744009305850                       # Total energy per rank (pJ)
system.mem_ctrls_1.averagePower            432.672645                       # Core power per rank (mW)
system.mem_ctrls_1.totalIdleTime         1492248723250                       # Total Idle time Per DRAM Rank
system.mem_ctrls_1.memoryStateTime::IDLE   7493607750                       # Time in different power states
system.mem_ctrls_1.memoryStateTime::REF   35571384000                       # Time in different power states
system.mem_ctrls_1.memoryStateTime::SREF 829514500500                       # Time in different power states
system.mem_ctrls_1.memoryStateTime::PRE_PDN 224141336750                       # Time in different power states
system.mem_ctrls_1.memoryStateTime::ACT  184186766500                       # Time in different power states
system.mem_ctrls_1.memoryStateTime::ACT_PDN 438658703000                       # Time in different power states
system.pwrStateResidencyTicks::UNDEFINED 1719566298500                       # Cumulative time (in ticks) in various power states
system.cpu_voltage_domain.voltage                   1                       # Voltage in Volts
system.cpu_clk_domain.clock                       500                       # Clock period in ticks
system.cpu.dtb.walker.pwrStateResidencyTicks::UNDEFINED 1719566298500                       # Cumulative time (in ticks) in various power states
system.cpu.apic_clk_domain.clock                 8000                       # Clock period in ticks
system.cpu.interrupts.pwrStateResidencyTicks::UNDEFINED 1719566298500                       # Cumulative time (in ticks) in various power states
system.cpu.itb.walker.pwrStateResidencyTicks::UNDEFINED 1719566298500                       # Cumulative time (in ticks) in various power states
system.cpu.workload.num_syscalls                  196                       # Number of system calls
system.cpu.pwrStateResidencyTicks::ON    1719566298500                       # Cumulative time (in ticks) in various power states
system.cpu.numCycles                       3439132597                       # number of cpu cycles simulated
system.cpu.numWorkItemsStarted                      0                       # number of work items this cpu started
system.cpu.numWorkItemsCompleted                    0                       # number of work items this cpu completed
system.cpu.committedInsts                   500000000                       # Number of instructions committed
system.cpu.committedOps                     823366692                       # Number of ops (including micro ops) committed
system.cpu.num_int_alu_accesses             821415783                       # Number of integer alu accesses
system.cpu.num_fp_alu_accesses               66619246                       # Number of float alu accesses
system.cpu.num_func_calls                     5652773                       # number of times a function call or return occured
system.cpu.num_conditional_control_insts     57208853                       # number of instructions that are conditional controls
system.cpu.num_int_insts                    821415783                       # number of integer instructions
system.cpu.num_fp_insts                      66619246                       # number of float instructions
system.cpu.num_int_register_reads          1637209917                       # number of times the integer registers were read
system.cpu.num_int_register_writes          639871082                       # number of times the integer registers were written
system.cpu.num_fp_register_reads             66766836                       # number of times the floating registers were read
system.cpu.num_fp_register_writes              208042                       # number of times the floating registers were written
system.cpu.num_cc_register_reads            319714243                       # number of times the CC registers were read
system.cpu.num_cc_register_writes           287984022                       # number of times the CC registers were written
system.cpu.num_mem_refs                     271673939                       # number of memory refs
system.cpu.num_load_insts                   157213791                       # Number of load instructions
system.cpu.num_store_insts                  114460148                       # Number of store instructions
system.cpu.num_idle_cycles                          0                       # Number of idle cycles
system.cpu.num_busy_cycles                 3439132597                       # Number of busy cycles
system.cpu.not_idle_fraction                        1                       # Percentage of non-idle cycles
system.cpu.idle_fraction                            0                       # Percentage of idle cycles
system.cpu.Branches                          69678400                       # Number of branches fetched
system.cpu.op_class::No_OpClass                202234      0.02%      0.02% # Class of executed instruction
system.cpu.op_class::IntAlu                 550028817     66.80%     66.83% # Class of executed instruction
system.cpu.op_class::IntMult                   125092      0.02%     66.84% # Class of executed instruction
system.cpu.op_class::IntDiv                   1153479      0.14%     66.98% # Class of executed instruction
system.cpu.op_class::FloatAdd                  183131      0.02%     67.00% # Class of executed instruction
system.cpu.op_class::FloatCmp                       0      0.00%     67.00% # Class of executed instruction
system.cpu.op_class::FloatCvt                       0      0.00%     67.00% # Class of executed instruction
system.cpu.op_class::FloatMult                      0      0.00%     67.00% # Class of executed instruction
system.cpu.op_class::FloatDiv                       0      0.00%     67.00% # Class of executed instruction
system.cpu.op_class::FloatSqrt                      0      0.00%     67.00% # Class of executed instruction
system.cpu.op_class::SimdAdd                        0      0.00%     67.00% # Class of executed instruction
system.cpu.op_class::SimdAddAcc                     0      0.00%     67.00% # Class of executed instruction
system.cpu.op_class::SimdAlu                        0      0.00%     67.00% # Class of executed instruction
system.cpu.op_class::SimdCmp                        0      0.00%     67.00% # Class of executed instruction
system.cpu.op_class::SimdCvt                        0      0.00%     67.00% # Class of executed instruction
system.cpu.op_class::SimdMisc                       0      0.00%     67.00% # Class of executed instruction
system.cpu.op_class::SimdMult                       0      0.00%     67.00% # Class of executed instruction
system.cpu.op_class::SimdMultAcc                    0      0.00%     67.00% # Class of executed instruction
system.cpu.op_class::SimdShift                      0      0.00%     67.00% # Class of executed instruction
system.cpu.op_class::SimdShiftAcc                   0      0.00%     67.00% # Class of executed instruction
system.cpu.op_class::SimdSqrt                       0      0.00%     67.00% # Class of executed instruction
system.cpu.op_class::SimdFloatAdd                   0      0.00%     67.00% # Class of executed instruction
system.cpu.op_class::SimdFloatAlu                   0      0.00%     67.00% # Class of executed instruction
system.cpu.op_class::SimdFloatCmp                   0      0.00%     67.00% # Class of executed instruction
system.cpu.op_class::SimdFloatCvt                   0      0.00%     67.00% # Class of executed instruction
system.cpu.op_class::SimdFloatDiv                   0      0.00%     67.00% # Class of executed instruction
system.cpu.op_class::SimdFloatMisc                  0      0.00%     67.00% # Class of executed instruction
system.cpu.op_class::SimdFloatMult                  0      0.00%     67.00% # Class of executed instruction
system.cpu.op_class::SimdFloatMultAcc               0      0.00%     67.00% # Class of executed instruction
system.cpu.op_class::SimdFloatSqrt                  0      0.00%     67.00% # Class of executed instruction
system.cpu.op_class::MemRead                157213791     19.09%     86.10% # Class of executed instruction
system.cpu.op_class::MemWrite               114460148     13.90%    100.00% # Class of executed instruction
system.cpu.op_class::IprAccess                      0      0.00%    100.00% # Class of executed instruction
system.cpu.op_class::InstPrefetch                   0      0.00%    100.00% # Class of executed instruction
system.cpu.op_class::total                  823366692                       # Class of executed instruction
system.cpu.dcache.tags.pwrStateResidencyTicks::UNDEFINED 1719566298500                       # Cumulative time (in ticks) in various power states
system.cpu.dcache.tags.replacements           8495481                       # number of replacements
system.cpu.dcache.tags.tagsinuse          1023.819035                       # Cycle average of tags in use
system.cpu.dcache.tags.total_refs           263178038                       # Total number of references to valid blocks.
system.cpu.dcache.tags.sampled_refs           8496505                       # Sample count of references to valid blocks.
system.cpu.dcache.tags.avg_refs             30.974858                       # Average number of references to valid blocks.
system.cpu.dcache.tags.warmup_cycle        3122379500                       # Cycle when the warmup percentage was hit.
system.cpu.dcache.tags.occ_blocks::cpu.data  1023.819035                       # Average occupied blocks per requestor
system.cpu.dcache.tags.occ_percent::cpu.data     0.999823                       # Average percentage of cache occupancy
system.cpu.dcache.tags.occ_percent::total     0.999823                       # Average percentage of cache occupancy
system.cpu.dcache.tags.occ_task_id_blocks::1024         1024                       # Occupied blocks per task id
system.cpu.dcache.tags.age_task_id_blocks_1024::0            2                       # Occupied blocks per task id
system.cpu.dcache.tags.age_task_id_blocks_1024::1           41                       # Occupied blocks per task id
system.cpu.dcache.tags.age_task_id_blocks_1024::2          144                       # Occupied blocks per task id
system.cpu.dcache.tags.age_task_id_blocks_1024::3          496                       # Occupied blocks per task id
system.cpu.dcache.tags.age_task_id_blocks_1024::4          341                       # Occupied blocks per task id
system.cpu.dcache.tags.occ_task_id_percent::1024            1                       # Percentage of cache occupancy per task id
system.cpu.dcache.tags.tag_accesses        1095194677                       # Number of tag accesses
system.cpu.dcache.tags.data_accesses       1095194677                       # Number of data accesses
system.cpu.dcache.pwrStateResidencyTicks::UNDEFINED 1719566298500                       # Cumulative time (in ticks) in various power states
system.cpu.dcache.ReadReq_hits::cpu.data    157074348                       # number of ReadReq hits
system.cpu.dcache.ReadReq_hits::total       157074348                       # number of ReadReq hits
system.cpu.dcache.WriteReq_hits::cpu.data    106103690                       # number of WriteReq hits
system.cpu.dcache.WriteReq_hits::total      106103690                       # number of WriteReq hits
system.cpu.dcache.demand_hits::cpu.data     263178038                       # number of demand (read+write) hits
system.cpu.dcache.demand_hits::total        263178038                       # number of demand (read+write) hits
system.cpu.dcache.overall_hits::cpu.data    263178038                       # number of overall hits
system.cpu.dcache.overall_hits::total       263178038                       # number of overall hits
system.cpu.dcache.ReadReq_misses::cpu.data       140035                       # number of ReadReq misses
system.cpu.dcache.ReadReq_misses::total        140035                       # number of ReadReq misses
system.cpu.dcache.WriteReq_misses::cpu.data      8356470                       # number of WriteReq misses
system.cpu.dcache.WriteReq_misses::total      8356470                       # number of WriteReq misses
system.cpu.dcache.demand_misses::cpu.data      8496505                       # number of demand (read+write) misses
system.cpu.dcache.demand_misses::total        8496505                       # number of demand (read+write) misses
system.cpu.dcache.overall_misses::cpu.data      8496505                       # number of overall misses
system.cpu.dcache.overall_misses::total       8496505                       # number of overall misses
system.cpu.dcache.ReadReq_miss_latency::cpu.data  27130852500                       # number of ReadReq miss cycles
system.cpu.dcache.ReadReq_miss_latency::total  27130852500                       # number of ReadReq miss cycles
system.cpu.dcache.WriteReq_miss_latency::cpu.data 741660042000                       # number of WriteReq miss cycles
system.cpu.dcache.WriteReq_miss_latency::total 741660042000                       # number of WriteReq miss cycles
system.cpu.dcache.demand_miss_latency::cpu.data 768790894500                       # number of demand (read+write) miss cycles
system.cpu.dcache.demand_miss_latency::total 768790894500                       # number of demand (read+write) miss cycles
system.cpu.dcache.overall_miss_latency::cpu.data 768790894500                       # number of overall miss cycles
system.cpu.dcache.overall_miss_latency::total 768790894500                       # number of overall miss cycles
system.cpu.dcache.ReadReq_accesses::cpu.data    157214383                       # number of ReadReq accesses(hits+misses)
system.cpu.dcache.ReadReq_accesses::total    157214383                       # number of ReadReq accesses(hits+misses)
system.cpu.dcache.WriteReq_accesses::cpu.data    114460160                       # number of WriteReq accesses(hits+misses)
system.cpu.dcache.WriteReq_accesses::total    114460160                       # number of WriteReq accesses(hits+misses)
system.cpu.dcache.demand_accesses::cpu.data    271674543                       # number of demand (read+write) accesses
system.cpu.dcache.demand_accesses::total    271674543                       # number of demand (read+write) accesses
system.cpu.dcache.overall_accesses::cpu.data    271674543                       # number of overall (read+write) accesses
system.cpu.dcache.overall_accesses::total    271674543                       # number of overall (read+write) accesses
system.cpu.dcache.ReadReq_miss_rate::cpu.data     0.000891                       # miss rate for ReadReq accesses
system.cpu.dcache.ReadReq_miss_rate::total     0.000891                       # miss rate for ReadReq accesses
system.cpu.dcache.WriteReq_miss_rate::cpu.data     0.073008                       # miss rate for WriteReq accesses
system.cpu.dcache.WriteReq_miss_rate::total     0.073008                       # miss rate for WriteReq accesses
system.cpu.dcache.demand_miss_rate::cpu.data     0.031275                       # miss rate for demand accesses
system.cpu.dcache.demand_miss_rate::total     0.031275                       # miss rate for demand accesses
system.cpu.dcache.overall_miss_rate::cpu.data     0.031275                       # miss rate for overall accesses
system.cpu.dcache.overall_miss_rate::total     0.031275                       # miss rate for overall accesses
system.cpu.dcache.ReadReq_avg_miss_latency::cpu.data 193743.367729                       # average ReadReq miss latency
system.cpu.dcache.ReadReq_avg_miss_latency::total 193743.367729                       # average ReadReq miss latency
system.cpu.dcache.WriteReq_avg_miss_latency::cpu.data 88752.791789                       # average WriteReq miss latency
system.cpu.dcache.WriteReq_avg_miss_latency::total 88752.791789                       # average WriteReq miss latency
system.cpu.dcache.demand_avg_miss_latency::cpu.data 90483.192148                       # average overall miss latency
system.cpu.dcache.demand_avg_miss_latency::total 90483.192148                       # average overall miss latency
system.cpu.dcache.overall_avg_miss_latency::cpu.data 90483.192148                       # average overall miss latency
system.cpu.dcache.overall_avg_miss_latency::total 90483.192148                       # average overall miss latency
system.cpu.dcache.blocked_cycles::no_mshrs            0                       # number of cycles access was blocked
system.cpu.dcache.blocked_cycles::no_targets            0                       # number of cycles access was blocked
system.cpu.dcache.blocked::no_mshrs                 0                       # number of cycles access was blocked
system.cpu.dcache.blocked::no_targets               0                       # number of cycles access was blocked
system.cpu.dcache.avg_blocked_cycles::no_mshrs          nan                       # average number of cycles each access was blocked
system.cpu.dcache.avg_blocked_cycles::no_targets          nan                       # average number of cycles each access was blocked
system.cpu.dcache.writebacks::writebacks      8444839                       # number of writebacks
system.cpu.dcache.writebacks::total           8444839                       # number of writebacks
system.cpu.dcache.ReadReq_mshr_misses::cpu.data       140035                       # number of ReadReq MSHR misses
system.cpu.dcache.ReadReq_mshr_misses::total       140035                       # number of ReadReq MSHR misses
system.cpu.dcache.WriteReq_mshr_misses::cpu.data      8356470                       # number of WriteReq MSHR misses
system.cpu.dcache.WriteReq_mshr_misses::total      8356470                       # number of WriteReq MSHR misses
system.cpu.dcache.demand_mshr_misses::cpu.data      8496505                       # number of demand (read+write) MSHR misses
system.cpu.dcache.demand_mshr_misses::total      8496505                       # number of demand (read+write) MSHR misses
system.cpu.dcache.overall_mshr_misses::cpu.data      8496505                       # number of overall MSHR misses
system.cpu.dcache.overall_mshr_misses::total      8496505                       # number of overall MSHR misses
system.cpu.dcache.ReadReq_mshr_miss_latency::cpu.data  26990817500                       # number of ReadReq MSHR miss cycles
system.cpu.dcache.ReadReq_mshr_miss_latency::total  26990817500                       # number of ReadReq MSHR miss cycles
system.cpu.dcache.WriteReq_mshr_miss_latency::cpu.data 733303572000                       # number of WriteReq MSHR miss cycles
system.cpu.dcache.WriteReq_mshr_miss_latency::total 733303572000                       # number of WriteReq MSHR miss cycles
system.cpu.dcache.demand_mshr_miss_latency::cpu.data 760294389500                       # number of demand (read+write) MSHR miss cycles
system.cpu.dcache.demand_mshr_miss_latency::total 760294389500                       # number of demand (read+write) MSHR miss cycles
system.cpu.dcache.overall_mshr_miss_latency::cpu.data 760294389500                       # number of overall MSHR miss cycles
system.cpu.dcache.overall_mshr_miss_latency::total 760294389500                       # number of overall MSHR miss cycles
system.cpu.dcache.ReadReq_mshr_miss_rate::cpu.data     0.000891                       # mshr miss rate for ReadReq accesses
system.cpu.dcache.ReadReq_mshr_miss_rate::total     0.000891                       # mshr miss rate for ReadReq accesses
system.cpu.dcache.WriteReq_mshr_miss_rate::cpu.data     0.073008                       # mshr miss rate for WriteReq accesses
system.cpu.dcache.WriteReq_mshr_miss_rate::total     0.073008                       # mshr miss rate for WriteReq accesses
system.cpu.dcache.demand_mshr_miss_rate::cpu.data     0.031275                       # mshr miss rate for demand accesses
system.cpu.dcache.demand_mshr_miss_rate::total     0.031275                       # mshr miss rate for demand accesses
system.cpu.dcache.overall_mshr_miss_rate::cpu.data     0.031275                       # mshr miss rate for overall accesses
system.cpu.dcache.overall_mshr_miss_rate::total     0.031275                       # mshr miss rate for overall accesses
system.cpu.dcache.ReadReq_avg_mshr_miss_latency::cpu.data 192743.367729                       # average ReadReq mshr miss latency
system.cpu.dcache.ReadReq_avg_mshr_miss_latency::total 192743.367729                       # average ReadReq mshr miss latency
system.cpu.dcache.WriteReq_avg_mshr_miss_latency::cpu.data 87752.791789                       # average WriteReq mshr miss latency
system.cpu.dcache.WriteReq_avg_mshr_miss_latency::total 87752.791789                       # average WriteReq mshr miss latency
system.cpu.dcache.demand_avg_mshr_miss_latency::cpu.data 89483.192148                       # average overall mshr miss latency
system.cpu.dcache.demand_avg_mshr_miss_latency::total 89483.192148                       # average overall mshr miss latency
system.cpu.dcache.overall_avg_mshr_miss_latency::cpu.data 89483.192148                       # average overall mshr miss latency
system.cpu.dcache.overall_avg_mshr_miss_latency::total 89483.192148                       # average overall mshr miss latency
system.cpu.dtb_walker_cache.tags.pwrStateResidencyTicks::UNDEFINED 1719566298500                       # Cumulative time (in ticks) in various power states
system.cpu.dtb_walker_cache.tags.replacements            0                       # number of replacements
system.cpu.dtb_walker_cache.tags.tagsinuse            0                       # Cycle average of tags in use
system.cpu.dtb_walker_cache.tags.total_refs            0                       # Total number of references to valid blocks.
system.cpu.dtb_walker_cache.tags.sampled_refs            0                       # Sample count of references to valid blocks.
system.cpu.dtb_walker_cache.tags.avg_refs          nan                       # Average number of references to valid blocks.
system.cpu.dtb_walker_cache.tags.warmup_cycle            0                       # Cycle when the warmup percentage was hit.
system.cpu.dtb_walker_cache.tags.tag_accesses            0                       # Number of tag accesses
system.cpu.dtb_walker_cache.tags.data_accesses            0                       # Number of data accesses
system.cpu.dtb_walker_cache.pwrStateResidencyTicks::UNDEFINED 1719566298500                       # Cumulative time (in ticks) in various power states
system.cpu.dtb_walker_cache.blocked_cycles::no_mshrs            0                       # number of cycles access was blocked
system.cpu.dtb_walker_cache.blocked_cycles::no_targets            0                       # number of cycles access was blocked
system.cpu.dtb_walker_cache.blocked::no_mshrs            0                       # number of cycles access was blocked
system.cpu.dtb_walker_cache.blocked::no_targets            0                       # number of cycles access was blocked
system.cpu.dtb_walker_cache.avg_blocked_cycles::no_mshrs          nan                       # average number of cycles each access was blocked
system.cpu.dtb_walker_cache.avg_blocked_cycles::no_targets          nan                       # average number of cycles each access was blocked
system.cpu.icache.tags.pwrStateResidencyTicks::UNDEFINED 1719566298500                       # Cumulative time (in ticks) in various power states
system.cpu.icache.tags.replacements            989341                       # number of replacements
system.cpu.icache.tags.tagsinuse           468.616196                       # Cycle average of tags in use
system.cpu.icache.tags.total_refs           674363804                       # Total number of references to valid blocks.
system.cpu.icache.tags.sampled_refs            989853                       # Sample count of references to valid blocks.
system.cpu.icache.tags.avg_refs            681.276719                       # Average number of references to valid blocks.
system.cpu.icache.tags.warmup_cycle      892042061500                       # Cycle when the warmup percentage was hit.
system.cpu.icache.tags.occ_blocks::cpu.inst   468.616196                       # Average occupied blocks per requestor
system.cpu.icache.tags.occ_percent::cpu.inst     0.915266                       # Average percentage of cache occupancy
system.cpu.icache.tags.occ_percent::total     0.915266                       # Average percentage of cache occupancy
system.cpu.icache.tags.occ_task_id_blocks::1024          512                       # Occupied blocks per task id
system.cpu.icache.tags.age_task_id_blocks_1024::0            8                       # Occupied blocks per task id
system.cpu.icache.tags.age_task_id_blocks_1024::1          100                       # Occupied blocks per task id
system.cpu.icache.tags.age_task_id_blocks_1024::2          116                       # Occupied blocks per task id
system.cpu.icache.tags.age_task_id_blocks_1024::3           60                       # Occupied blocks per task id
system.cpu.icache.tags.age_task_id_blocks_1024::4          228                       # Occupied blocks per task id
system.cpu.icache.tags.occ_task_id_percent::1024            1                       # Percentage of cache occupancy per task id
system.cpu.icache.tags.tag_accesses        2702404481                       # Number of tag accesses
system.cpu.icache.tags.data_accesses       2702404481                       # Number of data accesses
system.cpu.icache.pwrStateResidencyTicks::UNDEFINED 1719566298500                       # Cumulative time (in ticks) in various power states
system.cpu.icache.ReadReq_hits::cpu.inst    674363804                       # number of ReadReq hits
system.cpu.icache.ReadReq_hits::total       674363804                       # number of ReadReq hits
system.cpu.icache.demand_hits::cpu.inst     674363804                       # number of demand (read+write) hits
system.cpu.icache.demand_hits::total        674363804                       # number of demand (read+write) hits
system.cpu.icache.overall_hits::cpu.inst    674363804                       # number of overall hits
system.cpu.icache.overall_hits::total       674363804                       # number of overall hits
system.cpu.icache.ReadReq_misses::cpu.inst       989853                       # number of ReadReq misses
system.cpu.icache.ReadReq_misses::total        989853                       # number of ReadReq misses
system.cpu.icache.demand_misses::cpu.inst       989853                       # number of demand (read+write) misses
system.cpu.icache.demand_misses::total         989853                       # number of demand (read+write) misses
system.cpu.icache.overall_misses::cpu.inst       989853                       # number of overall misses
system.cpu.icache.overall_misses::total        989853                       # number of overall misses
system.cpu.icache.ReadReq_miss_latency::cpu.inst  13233988500                       # number of ReadReq miss cycles
system.cpu.icache.ReadReq_miss_latency::total  13233988500                       # number of ReadReq miss cycles
system.cpu.icache.demand_miss_latency::cpu.inst  13233988500                       # number of demand (read+write) miss cycles
system.cpu.icache.demand_miss_latency::total  13233988500                       # number of demand (read+write) miss cycles
system.cpu.icache.overall_miss_latency::cpu.inst  13233988500                       # number of overall miss cycles
system.cpu.icache.overall_miss_latency::total  13233988500                       # number of overall miss cycles
system.cpu.icache.ReadReq_accesses::cpu.inst    675353657                       # number of ReadReq accesses(hits+misses)
system.cpu.icache.ReadReq_accesses::total    675353657                       # number of ReadReq accesses(hits+misses)
system.cpu.icache.demand_accesses::cpu.inst    675353657                       # number of demand (read+write) accesses
system.cpu.icache.demand_accesses::total    675353657                       # number of demand (read+write) accesses
system.cpu.icache.overall_accesses::cpu.inst    675353657                       # number of overall (read+write) accesses
system.cpu.icache.overall_accesses::total    675353657                       # number of overall (read+write) accesses
system.cpu.icache.ReadReq_miss_rate::cpu.inst     0.001466                       # miss rate for ReadReq accesses
system.cpu.icache.ReadReq_miss_rate::total     0.001466                       # miss rate for ReadReq accesses
system.cpu.icache.demand_miss_rate::cpu.inst     0.001466                       # miss rate for demand accesses
system.cpu.icache.demand_miss_rate::total     0.001466                       # miss rate for demand accesses
system.cpu.icache.overall_miss_rate::cpu.inst     0.001466                       # miss rate for overall accesses
system.cpu.icache.overall_miss_rate::total     0.001466                       # miss rate for overall accesses
system.cpu.icache.ReadReq_avg_miss_latency::cpu.inst 13369.650342                       # average ReadReq miss latency
system.cpu.icache.ReadReq_avg_miss_latency::total 13369.650342                       # average ReadReq miss latency
system.cpu.icache.demand_avg_miss_latency::cpu.inst 13369.650342                       # average overall miss latency
system.cpu.icache.demand_avg_miss_latency::total 13369.650342                       # average overall miss latency
system.cpu.icache.overall_avg_miss_latency::cpu.inst 13369.650342                       # average overall miss latency
system.cpu.icache.overall_avg_miss_latency::total 13369.650342                       # average overall miss latency
system.cpu.icache.blocked_cycles::no_mshrs            0                       # number of cycles access was blocked
system.cpu.icache.blocked_cycles::no_targets            0                       # number of cycles access was blocked
system.cpu.icache.blocked::no_mshrs                 0                       # number of cycles access was blocked
system.cpu.icache.blocked::no_targets               0                       # number of cycles access was blocked
system.cpu.icache.avg_blocked_cycles::no_mshrs          nan                       # average number of cycles each access was blocked
system.cpu.icache.avg_blocked_cycles::no_targets          nan                       # average number of cycles each access was blocked
system.cpu.icache.writebacks::writebacks       989341                       # number of writebacks
system.cpu.icache.writebacks::total            989341                       # number of writebacks
system.cpu.icache.ReadReq_mshr_misses::cpu.inst       989853                       # number of ReadReq MSHR misses
system.cpu.icache.ReadReq_mshr_misses::total       989853                       # number of ReadReq MSHR misses
system.cpu.icache.demand_mshr_misses::cpu.inst       989853                       # number of demand (read+write) MSHR misses
system.cpu.icache.demand_mshr_misses::total       989853                       # number of demand (read+write) MSHR misses
system.cpu.icache.overall_mshr_misses::cpu.inst       989853                       # number of overall MSHR misses
system.cpu.icache.overall_mshr_misses::total       989853                       # number of overall MSHR misses
system.cpu.icache.ReadReq_mshr_miss_latency::cpu.inst  12244135500                       # number of ReadReq MSHR miss cycles
system.cpu.icache.ReadReq_mshr_miss_latency::total  12244135500                       # number of ReadReq MSHR miss cycles
system.cpu.icache.demand_mshr_miss_latency::cpu.inst  12244135500                       # number of demand (read+write) MSHR miss cycles
system.cpu.icache.demand_mshr_miss_latency::total  12244135500                       # number of demand (read+write) MSHR miss cycles
system.cpu.icache.overall_mshr_miss_latency::cpu.inst  12244135500                       # number of overall MSHR miss cycles
system.cpu.icache.overall_mshr_miss_latency::total  12244135500                       # number of overall MSHR miss cycles
system.cpu.icache.ReadReq_mshr_miss_rate::cpu.inst     0.001466                       # mshr miss rate for ReadReq accesses
system.cpu.icache.ReadReq_mshr_miss_rate::total     0.001466                       # mshr miss rate for ReadReq accesses
system.cpu.icache.demand_mshr_miss_rate::cpu.inst     0.001466                       # mshr miss rate for demand accesses
system.cpu.icache.demand_mshr_miss_rate::total     0.001466                       # mshr miss rate for demand accesses
system.cpu.icache.overall_mshr_miss_rate::cpu.inst     0.001466                       # mshr miss rate for overall accesses
system.cpu.icache.overall_mshr_miss_rate::total     0.001466                       # mshr miss rate for overall accesses
system.cpu.icache.ReadReq_avg_mshr_miss_latency::cpu.inst 12369.650342                       # average ReadReq mshr miss latency
system.cpu.icache.ReadReq_avg_mshr_miss_latency::total 12369.650342                       # average ReadReq mshr miss latency
system.cpu.icache.demand_avg_mshr_miss_latency::cpu.inst 12369.650342                       # average overall mshr miss latency
system.cpu.icache.demand_avg_mshr_miss_latency::total 12369.650342                       # average overall mshr miss latency
system.cpu.icache.overall_avg_mshr_miss_latency::cpu.inst 12369.650342                       # average overall mshr miss latency
system.cpu.icache.overall_avg_mshr_miss_latency::total 12369.650342                       # average overall mshr miss latency
system.cpu.itb_walker_cache.tags.pwrStateResidencyTicks::UNDEFINED 1719566298500                       # Cumulative time (in ticks) in various power states
system.cpu.itb_walker_cache.tags.replacements            0                       # number of replacements
system.cpu.itb_walker_cache.tags.tagsinuse            0                       # Cycle average of tags in use
system.cpu.itb_walker_cache.tags.total_refs            0                       # Total number of references to valid blocks.
system.cpu.itb_walker_cache.tags.sampled_refs            0                       # Sample count of references to valid blocks.
system.cpu.itb_walker_cache.tags.avg_refs          nan                       # Average number of references to valid blocks.
system.cpu.itb_walker_cache.tags.warmup_cycle            0                       # Cycle when the warmup percentage was hit.
system.cpu.itb_walker_cache.tags.tag_accesses            0                       # Number of tag accesses
system.cpu.itb_walker_cache.tags.data_accesses            0                       # Number of data accesses
system.cpu.itb_walker_cache.pwrStateResidencyTicks::UNDEFINED 1719566298500                       # Cumulative time (in ticks) in various power states
system.cpu.itb_walker_cache.blocked_cycles::no_mshrs            0                       # number of cycles access was blocked
system.cpu.itb_walker_cache.blocked_cycles::no_targets            0                       # number of cycles access was blocked
system.cpu.itb_walker_cache.blocked::no_mshrs            0                       # number of cycles access was blocked
system.cpu.itb_walker_cache.blocked::no_targets            0                       # number of cycles access was blocked
system.cpu.itb_walker_cache.avg_blocked_cycles::no_mshrs          nan                       # average number of cycles each access was blocked
system.cpu.itb_walker_cache.avg_blocked_cycles::no_targets          nan                       # average number of cycles each access was blocked
system.l2.tags.pwrStateResidencyTicks::UNDEFINED 1719566298500                       # Cumulative time (in ticks) in various power states
system.l2.tags.replacements                   8365409                       # number of replacements
system.l2.tags.tagsinuse                 16313.091878                       # Cycle average of tags in use
system.l2.tags.total_refs                    10588504                       # Total number of references to valid blocks.
system.l2.tags.sampled_refs                   8381793                       # Sample count of references to valid blocks.
system.l2.tags.avg_refs                      1.263274                       # Average number of references to valid blocks.
system.l2.tags.warmup_cycle                9586796000                       # Cycle when the warmup percentage was hit.
system.l2.tags.occ_blocks::writebacks      244.321156                       # Average occupied blocks per requestor
system.l2.tags.occ_blocks::cpu.inst        289.016196                       # Average occupied blocks per requestor
system.l2.tags.occ_blocks::cpu.data      15779.754527                       # Average occupied blocks per requestor
system.l2.tags.occ_percent::writebacks       0.014912                       # Average percentage of cache occupancy
system.l2.tags.occ_percent::cpu.inst         0.017640                       # Average percentage of cache occupancy
system.l2.tags.occ_percent::cpu.data         0.963120                       # Average percentage of cache occupancy
system.l2.tags.occ_percent::total            0.995672                       # Average percentage of cache occupancy
system.l2.tags.occ_task_id_blocks::1024         16384                       # Occupied blocks per task id
system.l2.tags.age_task_id_blocks_1024::1            5                       # Occupied blocks per task id
system.l2.tags.age_task_id_blocks_1024::2           86                       # Occupied blocks per task id
system.l2.tags.age_task_id_blocks_1024::3          900                       # Occupied blocks per task id
system.l2.tags.age_task_id_blocks_1024::4        15393                       # Occupied blocks per task id
system.l2.tags.occ_task_id_percent::1024            1                       # Percentage of cache occupancy per task id
system.l2.tags.tag_accesses                  46324151                       # Number of tag accesses
system.l2.tags.data_accesses                 46324151                       # Number of data accesses
system.l2.pwrStateResidencyTicks::UNDEFINED 1719566298500                       # Cumulative time (in ticks) in various power states
system.l2.WritebackDirty_hits::writebacks      8444839                       # number of WritebackDirty hits
system.l2.WritebackDirty_hits::total          8444839                       # number of WritebackDirty hits
system.l2.WritebackClean_hits::writebacks       989341                       # number of WritebackClean hits
system.l2.WritebackClean_hits::total           989341                       # number of WritebackClean hits
system.l2.ReadExReq_hits::cpu.data              61398                       # number of ReadExReq hits
system.l2.ReadExReq_hits::total                 61398                       # number of ReadExReq hits
system.l2.ReadCleanReq_hits::cpu.inst          987256                       # number of ReadCleanReq hits
system.l2.ReadCleanReq_hits::total             987256                       # number of ReadCleanReq hits
system.l2.ReadSharedReq_hits::cpu.data          58989                       # number of ReadSharedReq hits
system.l2.ReadSharedReq_hits::total             58989                       # number of ReadSharedReq hits
system.l2.demand_hits::cpu.inst                987256                       # number of demand (read+write) hits
system.l2.demand_hits::cpu.data                120387                       # number of demand (read+write) hits
system.l2.demand_hits::total                  1107643                       # number of demand (read+write) hits
system.l2.overall_hits::cpu.inst               987256                       # number of overall hits
system.l2.overall_hits::cpu.data               120387                       # number of overall hits
system.l2.overall_hits::total                 1107643                       # number of overall hits
system.l2.ReadExReq_misses::cpu.data          8295072                       # number of ReadExReq misses
system.l2.ReadExReq_misses::total             8295072                       # number of ReadExReq misses
system.l2.ReadCleanReq_misses::cpu.inst          2597                       # number of ReadCleanReq misses
system.l2.ReadCleanReq_misses::total             2597                       # number of ReadCleanReq misses
system.l2.ReadSharedReq_misses::cpu.data        81046                       # number of ReadSharedReq misses
system.l2.ReadSharedReq_misses::total           81046                       # number of ReadSharedReq misses
system.l2.demand_misses::cpu.inst                2597                       # number of demand (read+write) misses
system.l2.demand_misses::cpu.data             8376118                       # number of demand (read+write) misses
system.l2.demand_misses::total                8378715                       # number of demand (read+write) misses
system.l2.overall_misses::cpu.inst               2597                       # number of overall misses
system.l2.overall_misses::cpu.data            8376118                       # number of overall misses
system.l2.overall_misses::total               8378715                       # number of overall misses
system.l2.ReadExReq_miss_latency::cpu.data 720124096500                       # number of ReadExReq miss cycles
system.l2.ReadExReq_miss_latency::total  720124096500                       # number of ReadExReq miss cycles
system.l2.ReadCleanReq_miss_latency::cpu.inst    382064000                       # number of ReadCleanReq miss cycles
system.l2.ReadCleanReq_miss_latency::total    382064000                       # number of ReadCleanReq miss cycles
system.l2.ReadSharedReq_miss_latency::cpu.data  26161054500                       # number of ReadSharedReq miss cycles
system.l2.ReadSharedReq_miss_latency::total  26161054500                       # number of ReadSharedReq miss cycles
system.l2.demand_miss_latency::cpu.inst     382064000                       # number of demand (read+write) miss cycles
system.l2.demand_miss_latency::cpu.data  746285151000                       # number of demand (read+write) miss cycles
system.l2.demand_miss_latency::total     746667215000                       # number of demand (read+write) miss cycles
system.l2.overall_miss_latency::cpu.inst    382064000                       # number of overall miss cycles
system.l2.overall_miss_latency::cpu.data 746285151000                       # number of overall miss cycles
system.l2.overall_miss_latency::total    746667215000                       # number of overall miss cycles
system.l2.WritebackDirty_accesses::writebacks      8444839                       # number of WritebackDirty accesses(hits+misses)
system.l2.WritebackDirty_accesses::total      8444839                       # number of WritebackDirty accesses(hits+misses)
system.l2.WritebackClean_accesses::writebacks       989341                       # number of WritebackClean accesses(hits+misses)
system.l2.WritebackClean_accesses::total       989341                       # number of WritebackClean accesses(hits+misses)
system.l2.ReadExReq_accesses::cpu.data        8356470                       # number of ReadExReq accesses(hits+misses)
system.l2.ReadExReq_accesses::total           8356470                       # number of ReadExReq accesses(hits+misses)
system.l2.ReadCleanReq_accesses::cpu.inst       989853                       # number of ReadCleanReq accesses(hits+misses)
system.l2.ReadCleanReq_accesses::total         989853                       # number of ReadCleanReq accesses(hits+misses)
system.l2.ReadSharedReq_accesses::cpu.data       140035                       # number of ReadSharedReq accesses(hits+misses)
system.l2.ReadSharedReq_accesses::total        140035                       # number of ReadSharedReq accesses(hits+misses)
system.l2.demand_accesses::cpu.inst            989853                       # number of demand (read+write) accesses
system.l2.demand_accesses::cpu.data           8496505                       # number of demand (read+write) accesses
system.l2.demand_accesses::total              9486358                       # number of demand (read+write) accesses
system.l2.overall_accesses::cpu.inst           989853                       # number of overall (read+write) accesses
system.l2.overall_accesses::cpu.data          8496505                       # number of overall (read+write) accesses
system.l2.overall_accesses::total             9486358                       # number of overall (read+write) accesses
system.l2.ReadExReq_miss_rate::cpu.data      0.992653                       # miss rate for ReadExReq accesses
system.l2.ReadExReq_miss_rate::total         0.992653                       # miss rate for ReadExReq accesses
system.l2.ReadCleanReq_miss_rate::cpu.inst     0.002624                       # miss rate for ReadCleanReq accesses
system.l2.ReadCleanReq_miss_rate::total      0.002624                       # miss rate for ReadCleanReq accesses
system.l2.ReadSharedReq_miss_rate::cpu.data     0.578755                       # miss rate for ReadSharedReq accesses
system.l2.ReadSharedReq_miss_rate::total     0.578755                       # miss rate for ReadSharedReq accesses
system.l2.demand_miss_rate::cpu.inst         0.002624                       # miss rate for demand accesses
system.l2.demand_miss_rate::cpu.data         0.985831                       # miss rate for demand accesses
system.l2.demand_miss_rate::total            0.883238                       # miss rate for demand accesses
system.l2.overall_miss_rate::cpu.inst        0.002624                       # miss rate for overall accesses
system.l2.overall_miss_rate::cpu.data        0.985831                       # miss rate for overall accesses
system.l2.overall_miss_rate::total           0.883238                       # miss rate for overall accesses
system.l2.ReadExReq_avg_miss_latency::cpu.data 86813.483536                       # average ReadExReq miss latency
system.l2.ReadExReq_avg_miss_latency::total 86813.483536                       # average ReadExReq miss latency
system.l2.ReadCleanReq_avg_miss_latency::cpu.inst 147117.443204                       # average ReadCleanReq miss latency
system.l2.ReadCleanReq_avg_miss_latency::total 147117.443204                       # average ReadCleanReq miss latency
system.l2.ReadSharedReq_avg_miss_latency::cpu.data 322792.667127                       # average ReadSharedReq miss latency
system.l2.ReadSharedReq_avg_miss_latency::total 322792.667127                       # average ReadSharedReq miss latency
system.l2.demand_avg_miss_latency::cpu.inst 147117.443204                       # average overall miss latency
system.l2.demand_avg_miss_latency::cpu.data 89096.780991                       # average overall miss latency
system.l2.demand_avg_miss_latency::total 89114.764615                       # average overall miss latency
system.l2.overall_avg_miss_latency::cpu.inst 147117.443204                       # average overall miss latency
system.l2.overall_avg_miss_latency::cpu.data 89096.780991                       # average overall miss latency
system.l2.overall_avg_miss_latency::total 89114.764615                       # average overall miss latency
system.l2.blocked_cycles::no_mshrs                  0                       # number of cycles access was blocked
system.l2.blocked_cycles::no_targets                0                       # number of cycles access was blocked
system.l2.blocked::no_mshrs                         0                       # number of cycles access was blocked
system.l2.blocked::no_targets                       0                       # number of cycles access was blocked
system.l2.avg_blocked_cycles::no_mshrs            nan                       # average number of cycles each access was blocked
system.l2.avg_blocked_cycles::no_targets          nan                       # average number of cycles each access was blocked
system.l2.writebacks::writebacks              8346072                       # number of writebacks
system.l2.writebacks::total                   8346072                       # number of writebacks
system.l2.CleanEvict_mshr_misses::writebacks          882                       # number of CleanEvict MSHR misses
system.l2.CleanEvict_mshr_misses::total           882                       # number of CleanEvict MSHR misses
system.l2.ReadExReq_mshr_misses::cpu.data      8295072                       # number of ReadExReq MSHR misses
system.l2.ReadExReq_mshr_misses::total        8295072                       # number of ReadExReq MSHR misses
system.l2.ReadCleanReq_mshr_misses::cpu.inst         2597                       # number of ReadCleanReq MSHR misses
system.l2.ReadCleanReq_mshr_misses::total         2597                       # number of ReadCleanReq MSHR misses
system.l2.ReadSharedReq_mshr_misses::cpu.data        81046                       # number of ReadSharedReq MSHR misses
system.l2.ReadSharedReq_mshr_misses::total        81046                       # number of ReadSharedReq MSHR misses
system.l2.demand_mshr_misses::cpu.inst           2597                       # number of demand (read+write) MSHR misses
system.l2.demand_mshr_misses::cpu.data        8376118                       # number of demand (read+write) MSHR misses
system.l2.demand_mshr_misses::total           8378715                       # number of demand (read+write) MSHR misses
system.l2.overall_mshr_misses::cpu.inst          2597                       # number of overall MSHR misses
system.l2.overall_mshr_misses::cpu.data       8376118                       # number of overall MSHR misses
system.l2.overall_mshr_misses::total          8378715                       # number of overall MSHR misses
system.l2.ReadExReq_mshr_miss_latency::cpu.data 637173376500                       # number of ReadExReq MSHR miss cycles
system.l2.ReadExReq_mshr_miss_latency::total 637173376500                       # number of ReadExReq MSHR miss cycles
system.l2.ReadCleanReq_mshr_miss_latency::cpu.inst    356094000                       # number of ReadCleanReq MSHR miss cycles
system.l2.ReadCleanReq_mshr_miss_latency::total    356094000                       # number of ReadCleanReq MSHR miss cycles
system.l2.ReadSharedReq_mshr_miss_latency::cpu.data  25350594500                       # number of ReadSharedReq MSHR miss cycles
system.l2.ReadSharedReq_mshr_miss_latency::total  25350594500                       # number of ReadSharedReq MSHR miss cycles
system.l2.demand_mshr_miss_latency::cpu.inst    356094000                       # number of demand (read+write) MSHR miss cycles
system.l2.demand_mshr_miss_latency::cpu.data 662523971000                       # number of demand (read+write) MSHR miss cycles
system.l2.demand_mshr_miss_latency::total 662880065000                       # number of demand (read+write) MSHR miss cycles
system.l2.overall_mshr_miss_latency::cpu.inst    356094000                       # number of overall MSHR miss cycles
system.l2.overall_mshr_miss_latency::cpu.data 662523971000                       # number of overall MSHR miss cycles
system.l2.overall_mshr_miss_latency::total 662880065000                       # number of overall MSHR miss cycles
system.l2.CleanEvict_mshr_miss_rate::writebacks          inf                       # mshr miss rate for CleanEvict accesses
system.l2.CleanEvict_mshr_miss_rate::total          inf                       # mshr miss rate for CleanEvict accesses
system.l2.ReadExReq_mshr_miss_rate::cpu.data     0.992653                       # mshr miss rate for ReadExReq accesses
system.l2.ReadExReq_mshr_miss_rate::total     0.992653                       # mshr miss rate for ReadExReq accesses
system.l2.ReadCleanReq_mshr_miss_rate::cpu.inst     0.002624                       # mshr miss rate for ReadCleanReq accesses
system.l2.ReadCleanReq_mshr_miss_rate::total     0.002624                       # mshr miss rate for ReadCleanReq accesses
system.l2.ReadSharedReq_mshr_miss_rate::cpu.data     0.578755                       # mshr miss rate for ReadSharedReq accesses
system.l2.ReadSharedReq_mshr_miss_rate::total     0.578755                       # mshr miss rate for ReadSharedReq accesses
system.l2.demand_mshr_miss_rate::cpu.inst     0.002624                       # mshr miss rate for demand accesses
system.l2.demand_mshr_miss_rate::cpu.data     0.985831                       # mshr miss rate for demand accesses
system.l2.demand_mshr_miss_rate::total       0.883238                       # mshr miss rate for demand accesses
system.l2.overall_mshr_miss_rate::cpu.inst     0.002624                       # mshr miss rate for overall accesses
system.l2.overall_mshr_miss_rate::cpu.data     0.985831                       # mshr miss rate for overall accesses
system.l2.overall_mshr_miss_rate::total      0.883238                       # mshr miss rate for overall accesses
system.l2.ReadExReq_avg_mshr_miss_latency::cpu.data 76813.483536                       # average ReadExReq mshr miss latency
system.l2.ReadExReq_avg_mshr_miss_latency::total 76813.483536                       # average ReadExReq mshr miss latency
system.l2.ReadCleanReq_avg_mshr_miss_latency::cpu.inst 137117.443204                       # average ReadCleanReq mshr miss latency
system.l2.ReadCleanReq_avg_mshr_miss_latency::total 137117.443204                       # average ReadCleanReq mshr miss latency
system.l2.ReadSharedReq_avg_mshr_miss_latency::cpu.data 312792.667127                       # average ReadSharedReq mshr miss latency
system.l2.ReadSharedReq_avg_mshr_miss_latency::total 312792.667127                       # average ReadSharedReq mshr miss latency
system.l2.demand_avg_mshr_miss_latency::cpu.inst 137117.443204                       # average overall mshr miss latency
system.l2.demand_avg_mshr_miss_latency::cpu.data 79096.780991                       # average overall mshr miss latency
system.l2.demand_avg_mshr_miss_latency::total 79114.764615                       # average overall mshr miss latency
system.l2.overall_avg_mshr_miss_latency::cpu.inst 137117.443204                       # average overall mshr miss latency
system.l2.overall_avg_mshr_miss_latency::cpu.data 79096.780991                       # average overall mshr miss latency
system.l2.overall_avg_mshr_miss_latency::total 79114.764615                       # average overall mshr miss latency
system.membus.snoop_filter.tot_requests      16740821                       # Total number of requests made to the snoop filter.
system.membus.snoop_filter.hit_single_requests      8362106                       # Number of requests hitting in the snoop filter with a single holder of the requested data.
system.membus.snoop_filter.hit_multi_requests            0                       # Number of requests hitting in the snoop filter with multiple (>1) holders of the requested data.
system.membus.snoop_filter.tot_snoops               0                       # Total number of snoops made to the snoop filter.
system.membus.snoop_filter.hit_single_snoops            0                       # Number of snoops hitting in the snoop filter with a single holder of the requested data.
system.membus.snoop_filter.hit_multi_snoops            0                       # Number of snoops hitting in the snoop filter with multiple (>1) holders of the requested data.
system.membus.pwrStateResidencyTicks::UNDEFINED 1719566298500                       # Cumulative time (in ticks) in various power states
system.membus.trans_dist::ReadResp              83643                       # Transaction distribution
system.membus.trans_dist::WritebackDirty      8346072                       # Transaction distribution
system.membus.trans_dist::CleanEvict            16034                       # Transaction distribution
system.membus.trans_dist::ReadExReq           8295072                       # Transaction distribution
system.membus.trans_dist::ReadExResp          8295072                       # Transaction distribution
system.membus.trans_dist::ReadSharedReq         83643                       # Transaction distribution
system.membus.pkt_count_system.l2.mem_side::system.mem_ctrls.port     25119536                       # Packet count per connected master and slave (bytes)
system.membus.pkt_count_system.l2.mem_side::total     25119536                       # Packet count per connected master and slave (bytes)
system.membus.pkt_count::total               25119536                       # Packet count per connected master and slave (bytes)
system.membus.pkt_size_system.l2.mem_side::system.mem_ctrls.port   1070386368                       # Cumulative packet size per connected master and slave (bytes)
system.membus.pkt_size_system.l2.mem_side::total   1070386368                       # Cumulative packet size per connected master and slave (bytes)
system.membus.pkt_size::total              1070386368                       # Cumulative packet size per connected master and slave (bytes)
system.membus.snoops                                0                       # Total snoops (count)
system.membus.snoopTraffic                          0                       # Total snoop traffic (bytes)
system.membus.snoop_fanout::samples           8378715                       # Request fanout histogram
system.membus.snoop_fanout::mean                    0                       # Request fanout histogram
system.membus.snoop_fanout::stdev                   0                       # Request fanout histogram
system.membus.snoop_fanout::underflows              0      0.00%      0.00% # Request fanout histogram
system.membus.snoop_fanout::0                 8378715    100.00%    100.00% # Request fanout histogram
system.membus.snoop_fanout::1                       0      0.00%    100.00% # Request fanout histogram
system.membus.snoop_fanout::overflows               0      0.00%    100.00% # Request fanout histogram
system.membus.snoop_fanout::min_value               0                       # Request fanout histogram
system.membus.snoop_fanout::max_value               0                       # Request fanout histogram
system.membus.snoop_fanout::total             8378715                       # Request fanout histogram
system.membus.reqLayer2.occupancy         50131694500                       # Layer occupancy (ticks)
system.membus.reqLayer2.utilization               2.9                       # Layer utilization (%)
system.membus.respLayer1.occupancy        44084593500                       # Layer occupancy (ticks)
system.membus.respLayer1.utilization              2.6                       # Layer utilization (%)
system.tol2bus.snoop_filter.tot_requests     18971180                       # Total number of requests made to the snoop filter.
system.tol2bus.snoop_filter.hit_single_requests      9484822                       # Number of requests hitting in the snoop filter with a single holder of the requested data.
system.tol2bus.snoop_filter.hit_multi_requests            1                       # Number of requests hitting in the snoop filter with multiple (>1) holders of the requested data.
system.tol2bus.snoop_filter.tot_snoops           4185                       # Total number of snoops made to the snoop filter.
system.tol2bus.snoop_filter.hit_single_snoops         4185                       # Number of snoops hitting in the snoop filter with a single holder of the requested data.
system.tol2bus.snoop_filter.hit_multi_snoops            0                       # Number of snoops hitting in the snoop filter with multiple (>1) holders of the requested data.
system.tol2bus.pwrStateResidencyTicks::UNDEFINED 1719566298500                       # Cumulative time (in ticks) in various power states
system.tol2bus.trans_dist::ReadResp           1129888                       # Transaction distribution
system.tol2bus.trans_dist::WritebackDirty     16790911                       # Transaction distribution
system.tol2bus.trans_dist::WritebackClean       989341                       # Transaction distribution
system.tol2bus.trans_dist::CleanEvict           69979                       # Transaction distribution
system.tol2bus.trans_dist::ReadExReq          8356470                       # Transaction distribution
system.tol2bus.trans_dist::ReadExResp         8356470                       # Transaction distribution
system.tol2bus.trans_dist::ReadCleanReq        989853                       # Transaction distribution
system.tol2bus.trans_dist::ReadSharedReq       140035                       # Transaction distribution
system.tol2bus.pkt_count_system.cpu.icache.mem_side::system.l2.cpu_side      2969047                       # Packet count per connected master and slave (bytes)
system.tol2bus.pkt_count_system.cpu.dcache.mem_side::system.l2.cpu_side     25488491                       # Packet count per connected master and slave (bytes)
system.tol2bus.pkt_count::total              28457538                       # Packet count per connected master and slave (bytes)
system.tol2bus.pkt_size_system.cpu.icache.mem_side::system.l2.cpu_side    126668416                       # Cumulative packet size per connected master and slave (bytes)
system.tol2bus.pkt_size_system.cpu.dcache.mem_side::system.l2.cpu_side   1084246016                       # Cumulative packet size per connected master and slave (bytes)
system.tol2bus.pkt_size::total             1210914432                       # Cumulative packet size per connected master and slave (bytes)
system.tol2bus.snoops                         8365409                       # Total snoops (count)
system.tol2bus.snoopTraffic                 534148608                       # Total snoop traffic (bytes)
system.tol2bus.snoop_fanout::samples         17851767                       # Request fanout histogram
system.tol2bus.snoop_fanout::mean            0.000234                       # Request fanout histogram
system.tol2bus.snoop_fanout::stdev           0.015311                       # Request fanout histogram
system.tol2bus.snoop_fanout::underflows             0      0.00%      0.00% # Request fanout histogram
system.tol2bus.snoop_fanout::0               17847581     99.98%     99.98% # Request fanout histogram
system.tol2bus.snoop_fanout::1                   4186      0.02%    100.00% # Request fanout histogram
system.tol2bus.snoop_fanout::2                      0      0.00%    100.00% # Request fanout histogram
system.tol2bus.snoop_fanout::3                      0      0.00%    100.00% # Request fanout histogram
system.tol2bus.snoop_fanout::4                      0      0.00%    100.00% # Request fanout histogram
system.tol2bus.snoop_fanout::overflows              0      0.00%    100.00% # Request fanout histogram
system.tol2bus.snoop_fanout::min_value              0                       # Request fanout histogram
system.tol2bus.snoop_fanout::max_value              1                       # Request fanout histogram
system.tol2bus.snoop_fanout::total           17851767                       # Request fanout histogram
system.tol2bus.reqLayer0.occupancy        18919770000                       # Layer occupancy (ticks)
system.tol2bus.reqLayer0.utilization              1.1                       # Layer utilization (%)
system.tol2bus.respLayer0.occupancy        1484779500                       # Layer occupancy (ticks)
system.tol2bus.respLayer0.utilization             0.1                       # Layer utilization (%)
system.tol2bus.respLayer1.occupancy       12744757500                       # Layer occupancy (ticks)
system.tol2bus.respLayer1.utilization             0.7                       # Layer utilization (%)

---------- End Simulation Statistics   ----------
