
---------- Begin Simulation Statistics ----------
sim_seconds                                  0.954540                       # Number of seconds simulated
sim_ticks                                954540133500                       # Number of ticks simulated
final_tick                               954540133500                       # Number of ticks from beginning of simulation (restored from checkpoints and never reset)
sim_freq                                 1000000000000                       # Frequency of simulated ticks
host_inst_rate                                 650267                       # Simulator instruction rate (inst/s)
host_op_rate                                   838559                       # Simulator op (including micro ops) rate (op/s)
host_tick_rate                             1241411064                       # Simulator tick rate (ticks/s)
host_mem_usage                                 669472                       # Number of bytes of host memory used
host_seconds                                   768.92                       # Real time elapsed on the host
sim_insts                                   500000000                       # Number of instructions simulated
sim_ops                                     644780824                       # Number of ops (including micro ops) simulated
system.voltage_domain.voltage                       1                       # Voltage in Volts
system.clk_domain.clock                          1000                       # Clock period in ticks
system.mem_ctrls.pwrStateResidencyTicks::UNDEFINED 954540133500                       # Cumulative time (in ticks) in various power states
system.mem_ctrls.bytes_read::cpu.inst           87936                       # Number of bytes read from this memory
system.mem_ctrls.bytes_read::cpu.data          304832                       # Number of bytes read from this memory
system.mem_ctrls.bytes_read::total             392768                       # Number of bytes read from this memory
system.mem_ctrls.bytes_inst_read::cpu.inst        87936                       # Number of instructions bytes read from this memory
system.mem_ctrls.bytes_inst_read::total         87936                       # Number of instructions bytes read from this memory
system.mem_ctrls.bytes_written::writebacks        12512                       # Number of bytes written to this memory
system.mem_ctrls.bytes_written::total           12512                       # Number of bytes written to this memory
system.mem_ctrls.num_reads::cpu.inst             2748                       # Number of read requests responded to by this memory
system.mem_ctrls.num_reads::cpu.data             9526                       # Number of read requests responded to by this memory
system.mem_ctrls.num_reads::total               12274                       # Number of read requests responded to by this memory
system.mem_ctrls.num_writes::writebacks           391                       # Number of write requests responded to by this memory
system.mem_ctrls.num_writes::total                391                       # Number of write requests responded to by this memory
system.mem_ctrls.bw_read::cpu.inst              92124                       # Total read bandwidth from this memory (bytes/s)
system.mem_ctrls.bw_read::cpu.data             319350                       # Total read bandwidth from this memory (bytes/s)
system.mem_ctrls.bw_read::total                411474                       # Total read bandwidth from this memory (bytes/s)
system.mem_ctrls.bw_inst_read::cpu.inst         92124                       # Instruction read bandwidth from this memory (bytes/s)
system.mem_ctrls.bw_inst_read::total            92124                       # Instruction read bandwidth from this memory (bytes/s)
system.mem_ctrls.bw_write::writebacks           13108                       # Write bandwidth from this memory (bytes/s)
system.mem_ctrls.bw_write::total                13108                       # Write bandwidth from this memory (bytes/s)
system.mem_ctrls.bw_total::writebacks           13108                       # Total bandwidth to/from this memory (bytes/s)
system.mem_ctrls.bw_total::cpu.inst             92124                       # Total bandwidth to/from this memory (bytes/s)
system.mem_ctrls.bw_total::cpu.data            319350                       # Total bandwidth to/from this memory (bytes/s)
system.mem_ctrls.bw_total::total               424581                       # Total bandwidth to/from this memory (bytes/s)
system.mem_ctrls.readReqs                       12274                       # Number of read requests accepted
system.mem_ctrls.writeReqs                        391                       # Number of write requests accepted
system.mem_ctrls.readBursts                     12274                       # Number of DRAM read bursts, including those serviced by the write queue
system.mem_ctrls.writeBursts                      391                       # Number of DRAM write bursts, including those merged in the write queue
system.mem_ctrls.bytesReadDRAM                 773376                       # Total number of bytes read from DRAM
system.mem_ctrls.bytesReadWrQ                   12160                       # Total number of bytes read from write queue
system.mem_ctrls.bytesWritten                       0                       # Total number of bytes written to DRAM
system.mem_ctrls.bytesReadSys                  392768                       # Total read bytes from the system interface side
system.mem_ctrls.bytesWrittenSys                12512                       # Total written bytes from the system interface side
system.mem_ctrls.servicedByWrQ                    190                       # Number of DRAM read bursts serviced by the write queue
system.mem_ctrls.mergedWrBursts                   379                       # Number of DRAM write bursts merged with an existing one
system.mem_ctrls.neitherReadNorWriteReqs            0                       # Number of requests that are neither read nor write
system.mem_ctrls.perBankRdBursts::0               607                       # Per bank write bursts
system.mem_ctrls.perBankRdBursts::1               674                       # Per bank write bursts
system.mem_ctrls.perBankRdBursts::2               799                       # Per bank write bursts
system.mem_ctrls.perBankRdBursts::3               610                       # Per bank write bursts
system.mem_ctrls.perBankRdBursts::4              1468                       # Per bank write bursts
system.mem_ctrls.perBankRdBursts::5               770                       # Per bank write bursts
system.mem_ctrls.perBankRdBursts::6               660                       # Per bank write bursts
system.mem_ctrls.perBankRdBursts::7               793                       # Per bank write bursts
system.mem_ctrls.perBankRdBursts::8               711                       # Per bank write bursts
system.mem_ctrls.perBankRdBursts::9               714                       # Per bank write bursts
system.mem_ctrls.perBankRdBursts::10              820                       # Per bank write bursts
system.mem_ctrls.perBankRdBursts::11              899                       # Per bank write bursts
system.mem_ctrls.perBankRdBursts::12              702                       # Per bank write bursts
system.mem_ctrls.perBankRdBursts::13              628                       # Per bank write bursts
system.mem_ctrls.perBankRdBursts::14              607                       # Per bank write bursts
system.mem_ctrls.perBankRdBursts::15              622                       # Per bank write bursts
system.mem_ctrls.perBankWrBursts::0                 0                       # Per bank write bursts
system.mem_ctrls.perBankWrBursts::1                 0                       # Per bank write bursts
system.mem_ctrls.perBankWrBursts::2                 0                       # Per bank write bursts
system.mem_ctrls.perBankWrBursts::3                 0                       # Per bank write bursts
system.mem_ctrls.perBankWrBursts::4                 0                       # Per bank write bursts
system.mem_ctrls.perBankWrBursts::5                 0                       # Per bank write bursts
system.mem_ctrls.perBankWrBursts::6                 0                       # Per bank write bursts
system.mem_ctrls.perBankWrBursts::7                 0                       # Per bank write bursts
system.mem_ctrls.perBankWrBursts::8                 0                       # Per bank write bursts
system.mem_ctrls.perBankWrBursts::9                 0                       # Per bank write bursts
system.mem_ctrls.perBankWrBursts::10                0                       # Per bank write bursts
system.mem_ctrls.perBankWrBursts::11                0                       # Per bank write bursts
system.mem_ctrls.perBankWrBursts::12                0                       # Per bank write bursts
system.mem_ctrls.perBankWrBursts::13                0                       # Per bank write bursts
system.mem_ctrls.perBankWrBursts::14                0                       # Per bank write bursts
system.mem_ctrls.perBankWrBursts::15                0                       # Per bank write bursts
system.mem_ctrls.numRdRetry                         0                       # Number of times read queue was full causing retry
system.mem_ctrls.numWrRetry                         0                       # Number of times write queue was full causing retry
system.mem_ctrls.totGap                  951705133500                       # Total gap between requests
system.mem_ctrls.readPktSize::0                     0                       # Read request sizes (log2)
system.mem_ctrls.readPktSize::1                     0                       # Read request sizes (log2)
system.mem_ctrls.readPktSize::2                     0                       # Read request sizes (log2)
system.mem_ctrls.readPktSize::3                     0                       # Read request sizes (log2)
system.mem_ctrls.readPktSize::4                     0                       # Read request sizes (log2)
system.mem_ctrls.readPktSize::5                 12274                       # Read request sizes (log2)
system.mem_ctrls.readPktSize::6                     0                       # Read request sizes (log2)
system.mem_ctrls.writePktSize::0                    0                       # Write request sizes (log2)
system.mem_ctrls.writePktSize::1                    0                       # Write request sizes (log2)
system.mem_ctrls.writePktSize::2                    0                       # Write request sizes (log2)
system.mem_ctrls.writePktSize::3                    0                       # Write request sizes (log2)
system.mem_ctrls.writePktSize::4                    0                       # Write request sizes (log2)
system.mem_ctrls.writePktSize::5                  391                       # Write request sizes (log2)
system.mem_ctrls.writePktSize::6                    0                       # Write request sizes (log2)
system.mem_ctrls.rdQLenPdf::0                   11600                       # What read queue length does an incoming req see
system.mem_ctrls.rdQLenPdf::1                     245                       # What read queue length does an incoming req see
system.mem_ctrls.rdQLenPdf::2                     237                       # What read queue length does an incoming req see
system.mem_ctrls.rdQLenPdf::3                       2                       # What read queue length does an incoming req see
system.mem_ctrls.rdQLenPdf::4                       0                       # What read queue length does an incoming req see
system.mem_ctrls.rdQLenPdf::5                       0                       # What read queue length does an incoming req see
system.mem_ctrls.rdQLenPdf::6                       0                       # What read queue length does an incoming req see
system.mem_ctrls.rdQLenPdf::7                       0                       # What read queue length does an incoming req see
system.mem_ctrls.rdQLenPdf::8                       0                       # What read queue length does an incoming req see
system.mem_ctrls.rdQLenPdf::9                       0                       # What read queue length does an incoming req see
system.mem_ctrls.rdQLenPdf::10                      0                       # What read queue length does an incoming req see
system.mem_ctrls.rdQLenPdf::11                      0                       # What read queue length does an incoming req see
system.mem_ctrls.rdQLenPdf::12                      0                       # What read queue length does an incoming req see
system.mem_ctrls.rdQLenPdf::13                      0                       # What read queue length does an incoming req see
system.mem_ctrls.rdQLenPdf::14                      0                       # What read queue length does an incoming req see
system.mem_ctrls.rdQLenPdf::15                      0                       # What read queue length does an incoming req see
system.mem_ctrls.rdQLenPdf::16                      0                       # What read queue length does an incoming req see
system.mem_ctrls.rdQLenPdf::17                      0                       # What read queue length does an incoming req see
system.mem_ctrls.rdQLenPdf::18                      0                       # What read queue length does an incoming req see
system.mem_ctrls.rdQLenPdf::19                      0                       # What read queue length does an incoming req see
system.mem_ctrls.rdQLenPdf::20                      0                       # What read queue length does an incoming req see
system.mem_ctrls.rdQLenPdf::21                      0                       # What read queue length does an incoming req see
system.mem_ctrls.rdQLenPdf::22                      0                       # What read queue length does an incoming req see
system.mem_ctrls.rdQLenPdf::23                      0                       # What read queue length does an incoming req see
system.mem_ctrls.rdQLenPdf::24                      0                       # What read queue length does an incoming req see
system.mem_ctrls.rdQLenPdf::25                      0                       # What read queue length does an incoming req see
system.mem_ctrls.rdQLenPdf::26                      0                       # What read queue length does an incoming req see
system.mem_ctrls.rdQLenPdf::27                      0                       # What read queue length does an incoming req see
system.mem_ctrls.rdQLenPdf::28                      0                       # What read queue length does an incoming req see
system.mem_ctrls.rdQLenPdf::29                      0                       # What read queue length does an incoming req see
system.mem_ctrls.rdQLenPdf::30                      0                       # What read queue length does an incoming req see
system.mem_ctrls.rdQLenPdf::31                      0                       # What read queue length does an incoming req see
system.mem_ctrls.wrQLenPdf::0                       1                       # What write queue length does an incoming req see
system.mem_ctrls.wrQLenPdf::1                       1                       # What write queue length does an incoming req see
system.mem_ctrls.wrQLenPdf::2                       1                       # What write queue length does an incoming req see
system.mem_ctrls.wrQLenPdf::3                       1                       # What write queue length does an incoming req see
system.mem_ctrls.wrQLenPdf::4                       1                       # What write queue length does an incoming req see
system.mem_ctrls.wrQLenPdf::5                       1                       # What write queue length does an incoming req see
system.mem_ctrls.wrQLenPdf::6                       1                       # What write queue length does an incoming req see
system.mem_ctrls.wrQLenPdf::7                       1                       # What write queue length does an incoming req see
system.mem_ctrls.wrQLenPdf::8                       1                       # What write queue length does an incoming req see
system.mem_ctrls.wrQLenPdf::9                       1                       # What write queue length does an incoming req see
system.mem_ctrls.wrQLenPdf::10                      1                       # What write queue length does an incoming req see
system.mem_ctrls.wrQLenPdf::11                      1                       # What write queue length does an incoming req see
system.mem_ctrls.wrQLenPdf::12                      0                       # What write queue length does an incoming req see
system.mem_ctrls.wrQLenPdf::13                      0                       # What write queue length does an incoming req see
system.mem_ctrls.wrQLenPdf::14                      0                       # What write queue length does an incoming req see
system.mem_ctrls.wrQLenPdf::15                      0                       # What write queue length does an incoming req see
system.mem_ctrls.wrQLenPdf::16                      0                       # What write queue length does an incoming req see
system.mem_ctrls.wrQLenPdf::17                      0                       # What write queue length does an incoming req see
system.mem_ctrls.wrQLenPdf::18                      0                       # What write queue length does an incoming req see
system.mem_ctrls.wrQLenPdf::19                      0                       # What write queue length does an incoming req see
system.mem_ctrls.wrQLenPdf::20                      0                       # What write queue length does an incoming req see
system.mem_ctrls.wrQLenPdf::21                      0                       # What write queue length does an incoming req see
system.mem_ctrls.wrQLenPdf::22                      0                       # What write queue length does an incoming req see
system.mem_ctrls.wrQLenPdf::23                      0                       # What write queue length does an incoming req see
system.mem_ctrls.wrQLenPdf::24                      0                       # What write queue length does an incoming req see
system.mem_ctrls.wrQLenPdf::25                      0                       # What write queue length does an incoming req see
system.mem_ctrls.wrQLenPdf::26                      0                       # What write queue length does an incoming req see
system.mem_ctrls.wrQLenPdf::27                      0                       # What write queue length does an incoming req see
system.mem_ctrls.wrQLenPdf::28                      0                       # What write queue length does an incoming req see
system.mem_ctrls.wrQLenPdf::29                      0                       # What write queue length does an incoming req see
system.mem_ctrls.wrQLenPdf::30                      0                       # What write queue length does an incoming req see
system.mem_ctrls.wrQLenPdf::31                      0                       # What write queue length does an incoming req see
system.mem_ctrls.wrQLenPdf::32                      0                       # What write queue length does an incoming req see
system.mem_ctrls.wrQLenPdf::33                      0                       # What write queue length does an incoming req see
system.mem_ctrls.wrQLenPdf::34                      0                       # What write queue length does an incoming req see
system.mem_ctrls.wrQLenPdf::35                      0                       # What write queue length does an incoming req see
system.mem_ctrls.wrQLenPdf::36                      0                       # What write queue length does an incoming req see
system.mem_ctrls.wrQLenPdf::37                      0                       # What write queue length does an incoming req see
system.mem_ctrls.wrQLenPdf::38                      0                       # What write queue length does an incoming req see
system.mem_ctrls.wrQLenPdf::39                      0                       # What write queue length does an incoming req see
system.mem_ctrls.wrQLenPdf::40                      0                       # What write queue length does an incoming req see
system.mem_ctrls.wrQLenPdf::41                      0                       # What write queue length does an incoming req see
system.mem_ctrls.wrQLenPdf::42                      0                       # What write queue length does an incoming req see
system.mem_ctrls.wrQLenPdf::43                      0                       # What write queue length does an incoming req see
system.mem_ctrls.wrQLenPdf::44                      0                       # What write queue length does an incoming req see
system.mem_ctrls.wrQLenPdf::45                      0                       # What write queue length does an incoming req see
system.mem_ctrls.wrQLenPdf::46                      0                       # What write queue length does an incoming req see
system.mem_ctrls.wrQLenPdf::47                      0                       # What write queue length does an incoming req see
system.mem_ctrls.wrQLenPdf::48                      0                       # What write queue length does an incoming req see
system.mem_ctrls.wrQLenPdf::49                      0                       # What write queue length does an incoming req see
system.mem_ctrls.wrQLenPdf::50                      0                       # What write queue length does an incoming req see
system.mem_ctrls.wrQLenPdf::51                      0                       # What write queue length does an incoming req see
system.mem_ctrls.wrQLenPdf::52                      0                       # What write queue length does an incoming req see
system.mem_ctrls.wrQLenPdf::53                      0                       # What write queue length does an incoming req see
system.mem_ctrls.wrQLenPdf::54                      0                       # What write queue length does an incoming req see
system.mem_ctrls.wrQLenPdf::55                      0                       # What write queue length does an incoming req see
system.mem_ctrls.wrQLenPdf::56                      0                       # What write queue length does an incoming req see
system.mem_ctrls.wrQLenPdf::57                      0                       # What write queue length does an incoming req see
system.mem_ctrls.wrQLenPdf::58                      0                       # What write queue length does an incoming req see
system.mem_ctrls.wrQLenPdf::59                      0                       # What write queue length does an incoming req see
system.mem_ctrls.wrQLenPdf::60                      0                       # What write queue length does an incoming req see
system.mem_ctrls.wrQLenPdf::61                      0                       # What write queue length does an incoming req see
system.mem_ctrls.wrQLenPdf::62                      0                       # What write queue length does an incoming req see
system.mem_ctrls.wrQLenPdf::63                      0                       # What write queue length does an incoming req see
system.mem_ctrls.bytesPerActivate::samples         3440                       # Bytes accessed per row activation
system.mem_ctrls.bytesPerActivate::mean    224.818605                       # Bytes accessed per row activation
system.mem_ctrls.bytesPerActivate::gmean   147.650987                       # Bytes accessed per row activation
system.mem_ctrls.bytesPerActivate::stdev   270.644656                       # Bytes accessed per row activation
system.mem_ctrls.bytesPerActivate::0-127          898     26.10%     26.10% # Bytes accessed per row activation
system.mem_ctrls.bytesPerActivate::128-255         1854     53.90%     80.00% # Bytes accessed per row activation
system.mem_ctrls.bytesPerActivate::256-383          152      4.42%     84.42% # Bytes accessed per row activation
system.mem_ctrls.bytesPerActivate::384-511          100      2.91%     87.33% # Bytes accessed per row activation
system.mem_ctrls.bytesPerActivate::512-639           66      1.92%     89.24% # Bytes accessed per row activation
system.mem_ctrls.bytesPerActivate::640-767           52      1.51%     90.76% # Bytes accessed per row activation
system.mem_ctrls.bytesPerActivate::768-895           27      0.78%     91.54% # Bytes accessed per row activation
system.mem_ctrls.bytesPerActivate::896-1023           22      0.64%     92.18% # Bytes accessed per row activation
system.mem_ctrls.bytesPerActivate::1024-1151          269      7.82%    100.00% # Bytes accessed per row activation
system.mem_ctrls.bytesPerActivate::total         3440                       # Bytes accessed per row activation
system.mem_ctrls.totQLat                    319696250                       # Total ticks spent queuing
system.mem_ctrls.totMemAccLat               546271250                       # Total ticks spent from burst creation until serviced by the DRAM
system.mem_ctrls.totBusLat                   60420000                       # Total ticks spent in databus transfers
system.mem_ctrls.avgQLat                     26456.16                       # Average queueing delay per DRAM burst
system.mem_ctrls.avgBusLat                    5000.00                       # Average bus latency per DRAM burst
system.mem_ctrls.avgMemAccLat                45206.16                       # Average memory access latency per DRAM burst
system.mem_ctrls.avgRdBW                         0.81                       # Average DRAM read bandwidth in MiByte/s
system.mem_ctrls.avgWrBW                         0.00                       # Average achieved write bandwidth in MiByte/s
system.mem_ctrls.avgRdBWSys                      0.41                       # Average system read bandwidth in MiByte/s
system.mem_ctrls.avgWrBWSys                      0.01                       # Average system write bandwidth in MiByte/s
system.mem_ctrls.peakBW                      12800.00                       # Theoretical peak bandwidth in MiByte/s
system.mem_ctrls.busUtil                         0.01                       # Data bus utilization in percentage
system.mem_ctrls.busUtilRead                     0.01                       # Data bus utilization in percentage for reads
system.mem_ctrls.busUtilWrite                    0.00                       # Data bus utilization in percentage for writes
system.mem_ctrls.avgRdQLen                       1.00                       # Average read queue length when enqueuing
system.mem_ctrls.avgWrQLen                      11.86                       # Average write queue length when enqueuing
system.mem_ctrls.readRowHits                     8644                       # Number of row buffer hits during reads
system.mem_ctrls.writeRowHits                       0                       # Number of row buffer hits during writes
system.mem_ctrls.readRowHitRate                 71.53                       # Row buffer hit rate for reads
system.mem_ctrls.writeRowHitRate                 0.00                       # Row buffer hit rate for writes
system.mem_ctrls.avgGap                   75144503.24                       # Average gap between requests
system.mem_ctrls.pageHitRate                    71.46                       # Row buffer hit rate, read and write combined
system.mem_ctrls_0.actEnergy                 13280400                       # Energy for activate commands per rank (pJ)
system.mem_ctrls_0.preEnergy                  7058700                       # Energy for precharge commands per rank (pJ)
system.mem_ctrls_0.readEnergy                45560340                       # Energy for read commands per rank (pJ)
system.mem_ctrls_0.writeEnergy                      0                       # Energy for write commands per rank (pJ)
system.mem_ctrls_0.refreshEnergy         832222560.000000                       # Energy for refresh commands per rank (pJ)
system.mem_ctrls_0.actBackEnergy            235291440                       # Energy for active background per rank (pJ)
system.mem_ctrls_0.preBackEnergy             40436160                       # Energy for precharge background per rank (pJ)
system.mem_ctrls_0.actPowerDownEnergy      2500959930                       # Energy for active power-down per rank (pJ)
system.mem_ctrls_0.prePowerDownEnergy      1030051200                       # Energy for precharge power-down per rank (pJ)
system.mem_ctrls_0.selfRefreshEnergy     227114087280                       # Energy for self refresh per rank (pJ)
system.mem_ctrls_0.totalEnergy           231818950890                       # Total energy per rank (pJ)
system.mem_ctrls_0.averagePower            242.859302                       # Core power per rank (mW)
system.mem_ctrls_0.totalIdleTime         951098111000                       # Total Idle time Per DRAM Rank
system.mem_ctrls_0.memoryStateTime::IDLE     69533500                       # Time in different power states
system.mem_ctrls_0.memoryStateTime::REF     353504000                       # Time in different power states
system.mem_ctrls_0.memoryStateTime::SREF 945751845500                       # Time in different power states
system.mem_ctrls_0.memoryStateTime::PRE_PDN   2682521250                       # Time in different power states
system.mem_ctrls_0.memoryStateTime::ACT     198182000                       # Time in different power states
system.mem_ctrls_0.memoryStateTime::ACT_PDN   5484547250                       # Time in different power states
system.mem_ctrls_1.actEnergy                 11281200                       # Energy for activate commands per rank (pJ)
system.mem_ctrls_1.preEnergy                  5996100                       # Energy for precharge commands per rank (pJ)
system.mem_ctrls_1.readEnergy                40719420                       # Energy for read commands per rank (pJ)
system.mem_ctrls_1.writeEnergy                      0                       # Energy for write commands per rank (pJ)
system.mem_ctrls_1.refreshEnergy         417955200.000000                       # Energy for refresh commands per rank (pJ)
system.mem_ctrls_1.actBackEnergy            151490610                       # Energy for active background per rank (pJ)
system.mem_ctrls_1.preBackEnergy             12936000                       # Energy for precharge background per rank (pJ)
system.mem_ctrls_1.actPowerDownEnergy      1673020110                       # Energy for active power-down per rank (pJ)
system.mem_ctrls_1.prePowerDownEnergy       378085440                       # Energy for precharge power-down per rank (pJ)
system.mem_ctrls_1.selfRefreshEnergy     227905960020                       # Energy for self refresh per rank (pJ)
system.mem_ctrls_1.totalEnergy           230597444100                       # Total energy per rank (pJ)
system.mem_ctrls_1.averagePower            241.579621                       # Core power per rank (mW)
system.mem_ctrls_1.totalIdleTime          16279263500                       # Total Idle time Per DRAM Rank
system.mem_ctrls_1.memoryStateTime::IDLE     14824000                       # Time in different power states
system.mem_ctrls_1.memoryStateTime::REF     177040000                       # Time in different power states
system.mem_ctrls_1.memoryStateTime::SREF 949520727000                       # Time in different power states
system.mem_ctrls_1.memoryStateTime::PRE_PDN    984505000                       # Time in different power states
system.mem_ctrls_1.memoryStateTime::ACT     174059000                       # Time in different power states
system.mem_ctrls_1.memoryStateTime::ACT_PDN   3668978500                       # Time in different power states
system.pwrStateResidencyTicks::UNDEFINED 954540133500                       # Cumulative time (in ticks) in various power states
system.cpu_voltage_domain.voltage                   1                       # Voltage in Volts
system.cpu_clk_domain.clock                       500                       # Clock period in ticks
system.cpu.dtb.walker.pwrStateResidencyTicks::UNDEFINED 954540133500                       # Cumulative time (in ticks) in various power states
system.cpu.apic_clk_domain.clock                 8000                       # Clock period in ticks
system.cpu.interrupts.pwrStateResidencyTicks::UNDEFINED 954540133500                       # Cumulative time (in ticks) in various power states
system.cpu.itb.walker.pwrStateResidencyTicks::UNDEFINED 954540133500                       # Cumulative time (in ticks) in various power states
system.cpu.workload.num_syscalls                   34                       # Number of system calls
system.cpu.pwrStateResidencyTicks::ON    954540133500                       # Cumulative time (in ticks) in various power states
system.cpu.numCycles                       1909080267                       # number of cpu cycles simulated
system.cpu.numWorkItemsStarted                      0                       # number of work items this cpu started
system.cpu.numWorkItemsCompleted                    0                       # number of work items this cpu completed
system.cpu.committedInsts                   500000000                       # Number of instructions committed
system.cpu.committedOps                     644780824                       # Number of ops (including micro ops) committed
system.cpu.num_int_alu_accesses             625781845                       # Number of integer alu accesses
system.cpu.num_fp_alu_accesses               27680885                       # Number of float alu accesses
system.cpu.num_func_calls                     1532449                       # number of times a function call or return occured
system.cpu.num_conditional_control_insts     25288260                       # number of instructions that are conditional controls
system.cpu.num_int_insts                    625781845                       # number of integer instructions
system.cpu.num_fp_insts                      27680885                       # number of float instructions
system.cpu.num_int_register_reads          1467255983                       # number of times the integer registers were read
system.cpu.num_int_register_writes          569426959                       # number of times the integer registers were written
system.cpu.num_fp_register_reads             21886167                       # number of times the floating registers were read
system.cpu.num_fp_register_writes            23676651                       # number of times the floating registers were written
system.cpu.num_cc_register_reads            187287140                       # number of times the CC registers were read
system.cpu.num_cc_register_writes           260710310                       # number of times the CC registers were written
system.cpu.num_mem_refs                     254811579                       # number of memory refs
system.cpu.num_load_insts                   219158147                       # Number of load instructions
system.cpu.num_store_insts                   35653432                       # Number of store instructions
system.cpu.num_idle_cycles                          0                       # Number of idle cycles
system.cpu.num_busy_cycles                 1909080267                       # Number of busy cycles
system.cpu.not_idle_fraction                        1                       # Percentage of non-idle cycles
system.cpu.idle_fraction                            0                       # Percentage of idle cycles
system.cpu.Branches                          27593151                       # Number of branches fetched
system.cpu.op_class::No_OpClass               1477149      0.23%      0.23% # Class of executed instruction
system.cpu.op_class::IntAlu                 363712896     56.41%     56.64% # Class of executed instruction
system.cpu.op_class::IntMult                   612864      0.10%     56.73% # Class of executed instruction
system.cpu.op_class::IntDiv                   6327906      0.98%     57.71% # Class of executed instruction
system.cpu.op_class::FloatAdd                17838430      2.77%     60.48% # Class of executed instruction
system.cpu.op_class::FloatCmp                       0      0.00%     60.48% # Class of executed instruction
system.cpu.op_class::FloatCvt                       0      0.00%     60.48% # Class of executed instruction
system.cpu.op_class::FloatMult                      0      0.00%     60.48% # Class of executed instruction
system.cpu.op_class::FloatDiv                       0      0.00%     60.48% # Class of executed instruction
system.cpu.op_class::FloatSqrt                      0      0.00%     60.48% # Class of executed instruction
system.cpu.op_class::SimdAdd                        0      0.00%     60.48% # Class of executed instruction
system.cpu.op_class::SimdAddAcc                     0      0.00%     60.48% # Class of executed instruction
system.cpu.op_class::SimdAlu                        0      0.00%     60.48% # Class of executed instruction
system.cpu.op_class::SimdCmp                        0      0.00%     60.48% # Class of executed instruction
system.cpu.op_class::SimdCvt                        0      0.00%     60.48% # Class of executed instruction
system.cpu.op_class::SimdMisc                       0      0.00%     60.48% # Class of executed instruction
system.cpu.op_class::SimdMult                       0      0.00%     60.48% # Class of executed instruction
system.cpu.op_class::SimdMultAcc                    0      0.00%     60.48% # Class of executed instruction
system.cpu.op_class::SimdShift                      0      0.00%     60.48% # Class of executed instruction
system.cpu.op_class::SimdShiftAcc                   0      0.00%     60.48% # Class of executed instruction
system.cpu.op_class::SimdSqrt                       0      0.00%     60.48% # Class of executed instruction
system.cpu.op_class::SimdFloatAdd                   0      0.00%     60.48% # Class of executed instruction
system.cpu.op_class::SimdFloatAlu                   0      0.00%     60.48% # Class of executed instruction
system.cpu.op_class::SimdFloatCmp                   0      0.00%     60.48% # Class of executed instruction
system.cpu.op_class::SimdFloatCvt                   0      0.00%     60.48% # Class of executed instruction
system.cpu.op_class::SimdFloatDiv                   0      0.00%     60.48% # Class of executed instruction
system.cpu.op_class::SimdFloatMisc                  0      0.00%     60.48% # Class of executed instruction
system.cpu.op_class::SimdFloatMult                  0      0.00%     60.48% # Class of executed instruction
system.cpu.op_class::SimdFloatMultAcc               0      0.00%     60.48% # Class of executed instruction
system.cpu.op_class::SimdFloatSqrt                  0      0.00%     60.48% # Class of executed instruction
system.cpu.op_class::MemRead                219158147     33.99%     94.47% # Class of executed instruction
system.cpu.op_class::MemWrite                35653432      5.53%    100.00% # Class of executed instruction
system.cpu.op_class::IprAccess                      0      0.00%    100.00% # Class of executed instruction
system.cpu.op_class::InstPrefetch                   0      0.00%    100.00% # Class of executed instruction
system.cpu.op_class::total                  644780824                       # Class of executed instruction
system.cpu.dcache.tags.pwrStateResidencyTicks::UNDEFINED 954540133500                       # Cumulative time (in ticks) in various power states
system.cpu.dcache.tags.replacements            217125                       # number of replacements
system.cpu.dcache.tags.tagsinuse          4086.546414                       # Cycle average of tags in use
system.cpu.dcache.tags.total_refs           254592000                       # Total number of references to valid blocks.
system.cpu.dcache.tags.sampled_refs            221221                       # Sample count of references to valid blocks.
system.cpu.dcache.tags.avg_refs           1150.849151                       # Average number of references to valid blocks.
system.cpu.dcache.tags.warmup_cycle        7411187500                       # Cycle when the warmup percentage was hit.
system.cpu.dcache.tags.occ_blocks::cpu.data  4086.546414                       # Average occupied blocks per requestor
system.cpu.dcache.tags.occ_percent::cpu.data     0.997692                       # Average percentage of cache occupancy
system.cpu.dcache.tags.occ_percent::total     0.997692                       # Average percentage of cache occupancy
system.cpu.dcache.tags.occ_task_id_blocks::1024         4096                       # Occupied blocks per task id
system.cpu.dcache.tags.age_task_id_blocks_1024::0            1                       # Occupied blocks per task id
system.cpu.dcache.tags.age_task_id_blocks_1024::1            6                       # Occupied blocks per task id
system.cpu.dcache.tags.age_task_id_blocks_1024::2          137                       # Occupied blocks per task id
system.cpu.dcache.tags.age_task_id_blocks_1024::3          539                       # Occupied blocks per task id
system.cpu.dcache.tags.age_task_id_blocks_1024::4         3413                       # Occupied blocks per task id
system.cpu.dcache.tags.occ_task_id_percent::1024            1                       # Percentage of cache occupancy per task id
system.cpu.dcache.tags.tag_accesses         509847663                       # Number of tag accesses
system.cpu.dcache.tags.data_accesses        509847663                       # Number of data accesses
system.cpu.dcache.pwrStateResidencyTicks::UNDEFINED 954540133500                       # Cumulative time (in ticks) in various power states
system.cpu.dcache.ReadReq_hits::cpu.data    219111043                       # number of ReadReq hits
system.cpu.dcache.ReadReq_hits::total       219111043                       # number of ReadReq hits
system.cpu.dcache.WriteReq_hits::cpu.data     35480386                       # number of WriteReq hits
system.cpu.dcache.WriteReq_hits::total       35480386                       # number of WriteReq hits
system.cpu.dcache.SoftPFReq_hits::cpu.data          571                       # number of SoftPFReq hits
system.cpu.dcache.SoftPFReq_hits::total           571                       # number of SoftPFReq hits
system.cpu.dcache.demand_hits::cpu.data     254591429                       # number of demand (read+write) hits
system.cpu.dcache.demand_hits::total        254591429                       # number of demand (read+write) hits
system.cpu.dcache.overall_hits::cpu.data    254592000                       # number of overall hits
system.cpu.dcache.overall_hits::total       254592000                       # number of overall hits
system.cpu.dcache.ReadReq_misses::cpu.data        46427                       # number of ReadReq misses
system.cpu.dcache.ReadReq_misses::total         46427                       # number of ReadReq misses
system.cpu.dcache.WriteReq_misses::cpu.data       173141                       # number of WriteReq misses
system.cpu.dcache.WriteReq_misses::total       173141                       # number of WriteReq misses
system.cpu.dcache.SoftPFReq_misses::cpu.data         1653                       # number of SoftPFReq misses
system.cpu.dcache.SoftPFReq_misses::total         1653                       # number of SoftPFReq misses
system.cpu.dcache.demand_misses::cpu.data       219568                       # number of demand (read+write) misses
system.cpu.dcache.demand_misses::total         219568                       # number of demand (read+write) misses
system.cpu.dcache.overall_misses::cpu.data       221221                       # number of overall misses
system.cpu.dcache.overall_misses::total        221221                       # number of overall misses
system.cpu.dcache.ReadReq_miss_latency::cpu.data    706954500                       # number of ReadReq miss cycles
system.cpu.dcache.ReadReq_miss_latency::total    706954500                       # number of ReadReq miss cycles
system.cpu.dcache.WriteReq_miss_latency::cpu.data   2843131500                       # number of WriteReq miss cycles
system.cpu.dcache.WriteReq_miss_latency::total   2843131500                       # number of WriteReq miss cycles
system.cpu.dcache.demand_miss_latency::cpu.data   3550086000                       # number of demand (read+write) miss cycles
system.cpu.dcache.demand_miss_latency::total   3550086000                       # number of demand (read+write) miss cycles
system.cpu.dcache.overall_miss_latency::cpu.data   3550086000                       # number of overall miss cycles
system.cpu.dcache.overall_miss_latency::total   3550086000                       # number of overall miss cycles
system.cpu.dcache.ReadReq_accesses::cpu.data    219157470                       # number of ReadReq accesses(hits+misses)
system.cpu.dcache.ReadReq_accesses::total    219157470                       # number of ReadReq accesses(hits+misses)
system.cpu.dcache.WriteReq_accesses::cpu.data     35653527                       # number of WriteReq accesses(hits+misses)
system.cpu.dcache.WriteReq_accesses::total     35653527                       # number of WriteReq accesses(hits+misses)
system.cpu.dcache.SoftPFReq_accesses::cpu.data         2224                       # number of SoftPFReq accesses(hits+misses)
system.cpu.dcache.SoftPFReq_accesses::total         2224                       # number of SoftPFReq accesses(hits+misses)
system.cpu.dcache.demand_accesses::cpu.data    254810997                       # number of demand (read+write) accesses
system.cpu.dcache.demand_accesses::total    254810997                       # number of demand (read+write) accesses
system.cpu.dcache.overall_accesses::cpu.data    254813221                       # number of overall (read+write) accesses
system.cpu.dcache.overall_accesses::total    254813221                       # number of overall (read+write) accesses
system.cpu.dcache.ReadReq_miss_rate::cpu.data     0.000212                       # miss rate for ReadReq accesses
system.cpu.dcache.ReadReq_miss_rate::total     0.000212                       # miss rate for ReadReq accesses
system.cpu.dcache.WriteReq_miss_rate::cpu.data     0.004856                       # miss rate for WriteReq accesses
system.cpu.dcache.WriteReq_miss_rate::total     0.004856                       # miss rate for WriteReq accesses
system.cpu.dcache.SoftPFReq_miss_rate::cpu.data     0.743255                       # miss rate for SoftPFReq accesses
system.cpu.dcache.SoftPFReq_miss_rate::total     0.743255                       # miss rate for SoftPFReq accesses
system.cpu.dcache.demand_miss_rate::cpu.data     0.000862                       # miss rate for demand accesses
system.cpu.dcache.demand_miss_rate::total     0.000862                       # miss rate for demand accesses
system.cpu.dcache.overall_miss_rate::cpu.data     0.000868                       # miss rate for overall accesses
system.cpu.dcache.overall_miss_rate::total     0.000868                       # miss rate for overall accesses
system.cpu.dcache.ReadReq_avg_miss_latency::cpu.data 15227.227691                       # average ReadReq miss latency
system.cpu.dcache.ReadReq_avg_miss_latency::total 15227.227691                       # average ReadReq miss latency
system.cpu.dcache.WriteReq_avg_miss_latency::cpu.data 16420.902617                       # average WriteReq miss latency
system.cpu.dcache.WriteReq_avg_miss_latency::total 16420.902617                       # average WriteReq miss latency
system.cpu.dcache.demand_avg_miss_latency::cpu.data 16168.503607                       # average overall miss latency
system.cpu.dcache.demand_avg_miss_latency::total 16168.503607                       # average overall miss latency
system.cpu.dcache.overall_avg_miss_latency::cpu.data 16047.689867                       # average overall miss latency
system.cpu.dcache.overall_avg_miss_latency::total 16047.689867                       # average overall miss latency
system.cpu.dcache.blocked_cycles::no_mshrs         1203                       # number of cycles access was blocked
system.cpu.dcache.blocked_cycles::no_targets            0                       # number of cycles access was blocked
system.cpu.dcache.blocked::no_mshrs                 6                       # number of cycles access was blocked
system.cpu.dcache.blocked::no_targets               0                       # number of cycles access was blocked
system.cpu.dcache.avg_blocked_cycles::no_mshrs   200.500000                       # average number of cycles each access was blocked
system.cpu.dcache.avg_blocked_cycles::no_targets          nan                       # average number of cycles each access was blocked
system.cpu.dcache.writebacks::writebacks       212745                       # number of writebacks
system.cpu.dcache.writebacks::total            212745                       # number of writebacks
system.cpu.dcache.ReadReq_mshr_misses::cpu.data        46427                       # number of ReadReq MSHR misses
system.cpu.dcache.ReadReq_mshr_misses::total        46427                       # number of ReadReq MSHR misses
system.cpu.dcache.WriteReq_mshr_misses::cpu.data       173141                       # number of WriteReq MSHR misses
system.cpu.dcache.WriteReq_mshr_misses::total       173141                       # number of WriteReq MSHR misses
system.cpu.dcache.SoftPFReq_mshr_misses::cpu.data         1653                       # number of SoftPFReq MSHR misses
system.cpu.dcache.SoftPFReq_mshr_misses::total         1653                       # number of SoftPFReq MSHR misses
system.cpu.dcache.demand_mshr_misses::cpu.data       219568                       # number of demand (read+write) MSHR misses
system.cpu.dcache.demand_mshr_misses::total       219568                       # number of demand (read+write) MSHR misses
system.cpu.dcache.overall_mshr_misses::cpu.data       221221                       # number of overall MSHR misses
system.cpu.dcache.overall_mshr_misses::total       221221                       # number of overall MSHR misses
system.cpu.dcache.ReadReq_mshr_miss_latency::cpu.data    660527500                       # number of ReadReq MSHR miss cycles
system.cpu.dcache.ReadReq_mshr_miss_latency::total    660527500                       # number of ReadReq MSHR miss cycles
system.cpu.dcache.WriteReq_mshr_miss_latency::cpu.data   2669990500                       # number of WriteReq MSHR miss cycles
system.cpu.dcache.WriteReq_mshr_miss_latency::total   2669990500                       # number of WriteReq MSHR miss cycles
system.cpu.dcache.SoftPFReq_mshr_miss_latency::cpu.data     58744000                       # number of SoftPFReq MSHR miss cycles
system.cpu.dcache.SoftPFReq_mshr_miss_latency::total     58744000                       # number of SoftPFReq MSHR miss cycles
system.cpu.dcache.demand_mshr_miss_latency::cpu.data   3330518000                       # number of demand (read+write) MSHR miss cycles
system.cpu.dcache.demand_mshr_miss_latency::total   3330518000                       # number of demand (read+write) MSHR miss cycles
system.cpu.dcache.overall_mshr_miss_latency::cpu.data   3389262000                       # number of overall MSHR miss cycles
system.cpu.dcache.overall_mshr_miss_latency::total   3389262000                       # number of overall MSHR miss cycles
system.cpu.dcache.ReadReq_mshr_miss_rate::cpu.data     0.000212                       # mshr miss rate for ReadReq accesses
system.cpu.dcache.ReadReq_mshr_miss_rate::total     0.000212                       # mshr miss rate for ReadReq accesses
system.cpu.dcache.WriteReq_mshr_miss_rate::cpu.data     0.004856                       # mshr miss rate for WriteReq accesses
system.cpu.dcache.WriteReq_mshr_miss_rate::total     0.004856                       # mshr miss rate for WriteReq accesses
system.cpu.dcache.SoftPFReq_mshr_miss_rate::cpu.data     0.743255                       # mshr miss rate for SoftPFReq accesses
system.cpu.dcache.SoftPFReq_mshr_miss_rate::total     0.743255                       # mshr miss rate for SoftPFReq accesses
system.cpu.dcache.demand_mshr_miss_rate::cpu.data     0.000862                       # mshr miss rate for demand accesses
system.cpu.dcache.demand_mshr_miss_rate::total     0.000862                       # mshr miss rate for demand accesses
system.cpu.dcache.overall_mshr_miss_rate::cpu.data     0.000868                       # mshr miss rate for overall accesses
system.cpu.dcache.overall_mshr_miss_rate::total     0.000868                       # mshr miss rate for overall accesses
system.cpu.dcache.ReadReq_avg_mshr_miss_latency::cpu.data 14227.227691                       # average ReadReq mshr miss latency
system.cpu.dcache.ReadReq_avg_mshr_miss_latency::total 14227.227691                       # average ReadReq mshr miss latency
system.cpu.dcache.WriteReq_avg_mshr_miss_latency::cpu.data 15420.902617                       # average WriteReq mshr miss latency
system.cpu.dcache.WriteReq_avg_mshr_miss_latency::total 15420.902617                       # average WriteReq mshr miss latency
system.cpu.dcache.SoftPFReq_avg_mshr_miss_latency::cpu.data 35537.810042                       # average SoftPFReq mshr miss latency
system.cpu.dcache.SoftPFReq_avg_mshr_miss_latency::total 35537.810042                       # average SoftPFReq mshr miss latency
system.cpu.dcache.demand_avg_mshr_miss_latency::cpu.data 15168.503607                       # average overall mshr miss latency
system.cpu.dcache.demand_avg_mshr_miss_latency::total 15168.503607                       # average overall mshr miss latency
system.cpu.dcache.overall_avg_mshr_miss_latency::cpu.data 15320.706443                       # average overall mshr miss latency
system.cpu.dcache.overall_avg_mshr_miss_latency::total 15320.706443                       # average overall mshr miss latency
system.cpu.dtb_walker_cache.tags.pwrStateResidencyTicks::UNDEFINED 954540133500                       # Cumulative time (in ticks) in various power states
system.cpu.dtb_walker_cache.tags.replacements            0                       # number of replacements
system.cpu.dtb_walker_cache.tags.tagsinuse            0                       # Cycle average of tags in use
system.cpu.dtb_walker_cache.tags.total_refs            0                       # Total number of references to valid blocks.
system.cpu.dtb_walker_cache.tags.sampled_refs            0                       # Sample count of references to valid blocks.
system.cpu.dtb_walker_cache.tags.avg_refs          nan                       # Average number of references to valid blocks.
system.cpu.dtb_walker_cache.tags.warmup_cycle            0                       # Cycle when the warmup percentage was hit.
system.cpu.dtb_walker_cache.tags.tag_accesses            0                       # Number of tag accesses
system.cpu.dtb_walker_cache.tags.data_accesses            0                       # Number of data accesses
system.cpu.dtb_walker_cache.pwrStateResidencyTicks::UNDEFINED 954540133500                       # Cumulative time (in ticks) in various power states
system.cpu.dtb_walker_cache.blocked_cycles::no_mshrs            0                       # number of cycles access was blocked
system.cpu.dtb_walker_cache.blocked_cycles::no_targets            0                       # number of cycles access was blocked
system.cpu.dtb_walker_cache.blocked::no_mshrs            0                       # number of cycles access was blocked
system.cpu.dtb_walker_cache.blocked::no_targets            0                       # number of cycles access was blocked
system.cpu.dtb_walker_cache.avg_blocked_cycles::no_mshrs          nan                       # average number of cycles each access was blocked
system.cpu.dtb_walker_cache.avg_blocked_cycles::no_targets          nan                       # average number of cycles each access was blocked
system.cpu.icache.tags.pwrStateResidencyTicks::UNDEFINED 954540133500                       # Cumulative time (in ticks) in various power states
system.cpu.icache.tags.replacements              6519                       # number of replacements
system.cpu.icache.tags.tagsinuse          1697.315742                       # Cycle average of tags in use
system.cpu.icache.tags.total_refs           695985013                       # Total number of references to valid blocks.
system.cpu.icache.tags.sampled_refs              8217                       # Sample count of references to valid blocks.
system.cpu.icache.tags.avg_refs          84700.622247                       # Average number of references to valid blocks.
system.cpu.icache.tags.warmup_cycle                 0                       # Cycle when the warmup percentage was hit.
system.cpu.icache.tags.occ_blocks::cpu.inst  1697.315742                       # Average occupied blocks per requestor
system.cpu.icache.tags.occ_percent::cpu.inst     0.828767                       # Average percentage of cache occupancy
system.cpu.icache.tags.occ_percent::total     0.828767                       # Average percentage of cache occupancy
system.cpu.icache.tags.occ_task_id_blocks::1024         1698                       # Occupied blocks per task id
system.cpu.icache.tags.age_task_id_blocks_1024::3           12                       # Occupied blocks per task id
system.cpu.icache.tags.age_task_id_blocks_1024::4         1686                       # Occupied blocks per task id
system.cpu.icache.tags.occ_task_id_percent::1024     0.829102                       # Percentage of cache occupancy per task id
system.cpu.icache.tags.tag_accesses        1391994677                       # Number of tag accesses
system.cpu.icache.tags.data_accesses       1391994677                       # Number of data accesses
system.cpu.icache.pwrStateResidencyTicks::UNDEFINED 954540133500                       # Cumulative time (in ticks) in various power states
system.cpu.icache.ReadReq_hits::cpu.inst    695985013                       # number of ReadReq hits
system.cpu.icache.ReadReq_hits::total       695985013                       # number of ReadReq hits
system.cpu.icache.demand_hits::cpu.inst     695985013                       # number of demand (read+write) hits
system.cpu.icache.demand_hits::total        695985013                       # number of demand (read+write) hits
system.cpu.icache.overall_hits::cpu.inst    695985013                       # number of overall hits
system.cpu.icache.overall_hits::total       695985013                       # number of overall hits
system.cpu.icache.ReadReq_misses::cpu.inst         8217                       # number of ReadReq misses
system.cpu.icache.ReadReq_misses::total          8217                       # number of ReadReq misses
system.cpu.icache.demand_misses::cpu.inst         8217                       # number of demand (read+write) misses
system.cpu.icache.demand_misses::total           8217                       # number of demand (read+write) misses
system.cpu.icache.overall_misses::cpu.inst         8217                       # number of overall misses
system.cpu.icache.overall_misses::total          8217                       # number of overall misses
system.cpu.icache.ReadReq_miss_latency::cpu.inst    411626000                       # number of ReadReq miss cycles
system.cpu.icache.ReadReq_miss_latency::total    411626000                       # number of ReadReq miss cycles
system.cpu.icache.demand_miss_latency::cpu.inst    411626000                       # number of demand (read+write) miss cycles
system.cpu.icache.demand_miss_latency::total    411626000                       # number of demand (read+write) miss cycles
system.cpu.icache.overall_miss_latency::cpu.inst    411626000                       # number of overall miss cycles
system.cpu.icache.overall_miss_latency::total    411626000                       # number of overall miss cycles
system.cpu.icache.ReadReq_accesses::cpu.inst    695993230                       # number of ReadReq accesses(hits+misses)
system.cpu.icache.ReadReq_accesses::total    695993230                       # number of ReadReq accesses(hits+misses)
system.cpu.icache.demand_accesses::cpu.inst    695993230                       # number of demand (read+write) accesses
system.cpu.icache.demand_accesses::total    695993230                       # number of demand (read+write) accesses
system.cpu.icache.overall_accesses::cpu.inst    695993230                       # number of overall (read+write) accesses
system.cpu.icache.overall_accesses::total    695993230                       # number of overall (read+write) accesses
system.cpu.icache.ReadReq_miss_rate::cpu.inst     0.000012                       # miss rate for ReadReq accesses
system.cpu.icache.ReadReq_miss_rate::total     0.000012                       # miss rate for ReadReq accesses
system.cpu.icache.demand_miss_rate::cpu.inst     0.000012                       # miss rate for demand accesses
system.cpu.icache.demand_miss_rate::total     0.000012                       # miss rate for demand accesses
system.cpu.icache.overall_miss_rate::cpu.inst     0.000012                       # miss rate for overall accesses
system.cpu.icache.overall_miss_rate::total     0.000012                       # miss rate for overall accesses
system.cpu.icache.ReadReq_avg_miss_latency::cpu.inst 50094.438359                       # average ReadReq miss latency
system.cpu.icache.ReadReq_avg_miss_latency::total 50094.438359                       # average ReadReq miss latency
system.cpu.icache.demand_avg_miss_latency::cpu.inst 50094.438359                       # average overall miss latency
system.cpu.icache.demand_avg_miss_latency::total 50094.438359                       # average overall miss latency
system.cpu.icache.overall_avg_miss_latency::cpu.inst 50094.438359                       # average overall miss latency
system.cpu.icache.overall_avg_miss_latency::total 50094.438359                       # average overall miss latency
system.cpu.icache.blocked_cycles::no_mshrs            0                       # number of cycles access was blocked
system.cpu.icache.blocked_cycles::no_targets            0                       # number of cycles access was blocked
system.cpu.icache.blocked::no_mshrs                 0                       # number of cycles access was blocked
system.cpu.icache.blocked::no_targets               0                       # number of cycles access was blocked
system.cpu.icache.avg_blocked_cycles::no_mshrs          nan                       # average number of cycles each access was blocked
system.cpu.icache.avg_blocked_cycles::no_targets          nan                       # average number of cycles each access was blocked
system.cpu.icache.writebacks::writebacks         6519                       # number of writebacks
system.cpu.icache.writebacks::total              6519                       # number of writebacks
system.cpu.icache.ReadReq_mshr_misses::cpu.inst         8217                       # number of ReadReq MSHR misses
system.cpu.icache.ReadReq_mshr_misses::total         8217                       # number of ReadReq MSHR misses
system.cpu.icache.demand_mshr_misses::cpu.inst         8217                       # number of demand (read+write) MSHR misses
system.cpu.icache.demand_mshr_misses::total         8217                       # number of demand (read+write) MSHR misses
system.cpu.icache.overall_mshr_misses::cpu.inst         8217                       # number of overall MSHR misses
system.cpu.icache.overall_mshr_misses::total         8217                       # number of overall MSHR misses
system.cpu.icache.ReadReq_mshr_miss_latency::cpu.inst    403409000                       # number of ReadReq MSHR miss cycles
system.cpu.icache.ReadReq_mshr_miss_latency::total    403409000                       # number of ReadReq MSHR miss cycles
system.cpu.icache.demand_mshr_miss_latency::cpu.inst    403409000                       # number of demand (read+write) MSHR miss cycles
system.cpu.icache.demand_mshr_miss_latency::total    403409000                       # number of demand (read+write) MSHR miss cycles
system.cpu.icache.overall_mshr_miss_latency::cpu.inst    403409000                       # number of overall MSHR miss cycles
system.cpu.icache.overall_mshr_miss_latency::total    403409000                       # number of overall MSHR miss cycles
system.cpu.icache.ReadReq_mshr_miss_rate::cpu.inst     0.000012                       # mshr miss rate for ReadReq accesses
system.cpu.icache.ReadReq_mshr_miss_rate::total     0.000012                       # mshr miss rate for ReadReq accesses
system.cpu.icache.demand_mshr_miss_rate::cpu.inst     0.000012                       # mshr miss rate for demand accesses
system.cpu.icache.demand_mshr_miss_rate::total     0.000012                       # mshr miss rate for demand accesses
system.cpu.icache.overall_mshr_miss_rate::cpu.inst     0.000012                       # mshr miss rate for overall accesses
system.cpu.icache.overall_mshr_miss_rate::total     0.000012                       # mshr miss rate for overall accesses
system.cpu.icache.ReadReq_avg_mshr_miss_latency::cpu.inst 49094.438359                       # average ReadReq mshr miss latency
system.cpu.icache.ReadReq_avg_mshr_miss_latency::total 49094.438359                       # average ReadReq mshr miss latency
system.cpu.icache.demand_avg_mshr_miss_latency::cpu.inst 49094.438359                       # average overall mshr miss latency
system.cpu.icache.demand_avg_mshr_miss_latency::total 49094.438359                       # average overall mshr miss latency
system.cpu.icache.overall_avg_mshr_miss_latency::cpu.inst 49094.438359                       # average overall mshr miss latency
system.cpu.icache.overall_avg_mshr_miss_latency::total 49094.438359                       # average overall mshr miss latency
system.cpu.itb_walker_cache.tags.pwrStateResidencyTicks::UNDEFINED 954540133500                       # Cumulative time (in ticks) in various power states
system.cpu.itb_walker_cache.tags.replacements            0                       # number of replacements
system.cpu.itb_walker_cache.tags.tagsinuse            0                       # Cycle average of tags in use
system.cpu.itb_walker_cache.tags.total_refs            0                       # Total number of references to valid blocks.
system.cpu.itb_walker_cache.tags.sampled_refs            0                       # Sample count of references to valid blocks.
system.cpu.itb_walker_cache.tags.avg_refs          nan                       # Average number of references to valid blocks.
system.cpu.itb_walker_cache.tags.warmup_cycle            0                       # Cycle when the warmup percentage was hit.
system.cpu.itb_walker_cache.tags.tag_accesses            0                       # Number of tag accesses
system.cpu.itb_walker_cache.tags.data_accesses            0                       # Number of data accesses
system.cpu.itb_walker_cache.pwrStateResidencyTicks::UNDEFINED 954540133500                       # Cumulative time (in ticks) in various power states
system.cpu.itb_walker_cache.blocked_cycles::no_mshrs            0                       # number of cycles access was blocked
system.cpu.itb_walker_cache.blocked_cycles::no_targets            0                       # number of cycles access was blocked
system.cpu.itb_walker_cache.blocked::no_mshrs            0                       # number of cycles access was blocked
system.cpu.itb_walker_cache.blocked::no_targets            0                       # number of cycles access was blocked
system.cpu.itb_walker_cache.avg_blocked_cycles::no_mshrs          nan                       # average number of cycles each access was blocked
system.cpu.itb_walker_cache.avg_blocked_cycles::no_targets          nan                       # average number of cycles each access was blocked
system.l2.tags.pwrStateResidencyTicks::UNDEFINED 954540133500                       # Cumulative time (in ticks) in various power states
system.l2.tags.replacements                      2288                       # number of replacements
system.l2.tags.tagsinuse                 10864.676825                       # Cycle average of tags in use
system.l2.tags.total_refs                      439767                       # Total number of references to valid blocks.
system.l2.tags.sampled_refs                     13231                       # Sample count of references to valid blocks.
system.l2.tags.avg_refs                     33.237624                       # Average number of references to valid blocks.
system.l2.tags.warmup_cycle                         0                       # Cycle when the warmup percentage was hit.
system.l2.tags.occ_blocks::writebacks      101.724212                       # Average occupied blocks per requestor
system.l2.tags.occ_blocks::cpu.inst       1886.690035                       # Average occupied blocks per requestor
system.l2.tags.occ_blocks::cpu.data       8876.262579                       # Average occupied blocks per requestor
system.l2.tags.occ_percent::writebacks       0.003104                       # Average percentage of cache occupancy
system.l2.tags.occ_percent::cpu.inst         0.057577                       # Average percentage of cache occupancy
system.l2.tags.occ_percent::cpu.data         0.270882                       # Average percentage of cache occupancy
system.l2.tags.occ_percent::total            0.331564                       # Average percentage of cache occupancy
system.l2.tags.occ_task_id_blocks::1024         10943                       # Occupied blocks per task id
system.l2.tags.age_task_id_blocks_1024::2            2                       # Occupied blocks per task id
system.l2.tags.age_task_id_blocks_1024::4        10941                       # Occupied blocks per task id
system.l2.tags.occ_task_id_percent::1024     0.333954                       # Percentage of cache occupancy per task id
system.l2.tags.tag_accesses                    466313                       # Number of tag accesses
system.l2.tags.data_accesses                   466313                       # Number of data accesses
system.l2.pwrStateResidencyTicks::UNDEFINED 954540133500                       # Cumulative time (in ticks) in various power states
system.l2.WritebackDirty_hits::writebacks       212745                       # number of WritebackDirty hits
system.l2.WritebackDirty_hits::total           212745                       # number of WritebackDirty hits
system.l2.WritebackClean_hits::writebacks         6519                       # number of WritebackClean hits
system.l2.WritebackClean_hits::total             6519                       # number of WritebackClean hits
system.l2.ReadExReq_hits::cpu.data             165339                       # number of ReadExReq hits
system.l2.ReadExReq_hits::total                165339                       # number of ReadExReq hits
system.l2.ReadCleanReq_hits::cpu.inst            5469                       # number of ReadCleanReq hits
system.l2.ReadCleanReq_hits::total               5469                       # number of ReadCleanReq hits
system.l2.ReadSharedReq_hits::cpu.data          46356                       # number of ReadSharedReq hits
system.l2.ReadSharedReq_hits::total             46356                       # number of ReadSharedReq hits
system.l2.demand_hits::cpu.inst                  5469                       # number of demand (read+write) hits
system.l2.demand_hits::cpu.data                211695                       # number of demand (read+write) hits
system.l2.demand_hits::total                   217164                       # number of demand (read+write) hits
system.l2.overall_hits::cpu.inst                 5469                       # number of overall hits
system.l2.overall_hits::cpu.data               211695                       # number of overall hits
system.l2.overall_hits::total                  217164                       # number of overall hits
system.l2.ReadExReq_misses::cpu.data             7802                       # number of ReadExReq misses
system.l2.ReadExReq_misses::total                7802                       # number of ReadExReq misses
system.l2.ReadCleanReq_misses::cpu.inst          2748                       # number of ReadCleanReq misses
system.l2.ReadCleanReq_misses::total             2748                       # number of ReadCleanReq misses
system.l2.ReadSharedReq_misses::cpu.data         1724                       # number of ReadSharedReq misses
system.l2.ReadSharedReq_misses::total            1724                       # number of ReadSharedReq misses
system.l2.demand_misses::cpu.inst                2748                       # number of demand (read+write) misses
system.l2.demand_misses::cpu.data                9526                       # number of demand (read+write) misses
system.l2.demand_misses::total                  12274                       # number of demand (read+write) misses
system.l2.overall_misses::cpu.inst               2748                       # number of overall misses
system.l2.overall_misses::cpu.data               9526                       # number of overall misses
system.l2.overall_misses::total                 12274                       # number of overall misses
system.l2.ReadExReq_miss_latency::cpu.data    674219500                       # number of ReadExReq miss cycles
system.l2.ReadExReq_miss_latency::total     674219500                       # number of ReadExReq miss cycles
system.l2.ReadCleanReq_miss_latency::cpu.inst    333659000                       # number of ReadCleanReq miss cycles
system.l2.ReadCleanReq_miss_latency::total    333659000                       # number of ReadCleanReq miss cycles
system.l2.ReadSharedReq_miss_latency::cpu.data    160411500                       # number of ReadSharedReq miss cycles
system.l2.ReadSharedReq_miss_latency::total    160411500                       # number of ReadSharedReq miss cycles
system.l2.demand_miss_latency::cpu.inst     333659000                       # number of demand (read+write) miss cycles
system.l2.demand_miss_latency::cpu.data     834631000                       # number of demand (read+write) miss cycles
system.l2.demand_miss_latency::total       1168290000                       # number of demand (read+write) miss cycles
system.l2.overall_miss_latency::cpu.inst    333659000                       # number of overall miss cycles
system.l2.overall_miss_latency::cpu.data    834631000                       # number of overall miss cycles
system.l2.overall_miss_latency::total      1168290000                       # number of overall miss cycles
system.l2.WritebackDirty_accesses::writebacks       212745                       # number of WritebackDirty accesses(hits+misses)
system.l2.WritebackDirty_accesses::total       212745                       # number of WritebackDirty accesses(hits+misses)
system.l2.WritebackClean_accesses::writebacks         6519                       # number of WritebackClean accesses(hits+misses)
system.l2.WritebackClean_accesses::total         6519                       # number of WritebackClean accesses(hits+misses)
system.l2.ReadExReq_accesses::cpu.data         173141                       # number of ReadExReq accesses(hits+misses)
system.l2.ReadExReq_accesses::total            173141                       # number of ReadExReq accesses(hits+misses)
system.l2.ReadCleanReq_accesses::cpu.inst         8217                       # number of ReadCleanReq accesses(hits+misses)
system.l2.ReadCleanReq_accesses::total           8217                       # number of ReadCleanReq accesses(hits+misses)
system.l2.ReadSharedReq_accesses::cpu.data        48080                       # number of ReadSharedReq accesses(hits+misses)
system.l2.ReadSharedReq_accesses::total         48080                       # number of ReadSharedReq accesses(hits+misses)
system.l2.demand_accesses::cpu.inst              8217                       # number of demand (read+write) accesses
system.l2.demand_accesses::cpu.data            221221                       # number of demand (read+write) accesses
system.l2.demand_accesses::total               229438                       # number of demand (read+write) accesses
system.l2.overall_accesses::cpu.inst             8217                       # number of overall (read+write) accesses
system.l2.overall_accesses::cpu.data           221221                       # number of overall (read+write) accesses
system.l2.overall_accesses::total              229438                       # number of overall (read+write) accesses
system.l2.ReadExReq_miss_rate::cpu.data      0.045062                       # miss rate for ReadExReq accesses
system.l2.ReadExReq_miss_rate::total         0.045062                       # miss rate for ReadExReq accesses
system.l2.ReadCleanReq_miss_rate::cpu.inst     0.334429                       # miss rate for ReadCleanReq accesses
system.l2.ReadCleanReq_miss_rate::total      0.334429                       # miss rate for ReadCleanReq accesses
system.l2.ReadSharedReq_miss_rate::cpu.data     0.035857                       # miss rate for ReadSharedReq accesses
system.l2.ReadSharedReq_miss_rate::total     0.035857                       # miss rate for ReadSharedReq accesses
system.l2.demand_miss_rate::cpu.inst         0.334429                       # miss rate for demand accesses
system.l2.demand_miss_rate::cpu.data         0.043061                       # miss rate for demand accesses
system.l2.demand_miss_rate::total            0.053496                       # miss rate for demand accesses
system.l2.overall_miss_rate::cpu.inst        0.334429                       # miss rate for overall accesses
system.l2.overall_miss_rate::cpu.data        0.043061                       # miss rate for overall accesses
system.l2.overall_miss_rate::total           0.053496                       # miss rate for overall accesses
system.l2.ReadExReq_avg_miss_latency::cpu.data 86416.239426                       # average ReadExReq miss latency
system.l2.ReadExReq_avg_miss_latency::total 86416.239426                       # average ReadExReq miss latency
system.l2.ReadCleanReq_avg_miss_latency::cpu.inst 121418.850073                       # average ReadCleanReq miss latency
system.l2.ReadCleanReq_avg_miss_latency::total 121418.850073                       # average ReadCleanReq miss latency
system.l2.ReadSharedReq_avg_miss_latency::cpu.data 93046.113689                       # average ReadSharedReq miss latency
system.l2.ReadSharedReq_avg_miss_latency::total 93046.113689                       # average ReadSharedReq miss latency
system.l2.demand_avg_miss_latency::cpu.inst 121418.850073                       # average overall miss latency
system.l2.demand_avg_miss_latency::cpu.data 87616.103296                       # average overall miss latency
system.l2.demand_avg_miss_latency::total 95184.129053                       # average overall miss latency
system.l2.overall_avg_miss_latency::cpu.inst 121418.850073                       # average overall miss latency
system.l2.overall_avg_miss_latency::cpu.data 87616.103296                       # average overall miss latency
system.l2.overall_avg_miss_latency::total 95184.129053                       # average overall miss latency
system.l2.blocked_cycles::no_mshrs                  0                       # number of cycles access was blocked
system.l2.blocked_cycles::no_targets                0                       # number of cycles access was blocked
system.l2.blocked::no_mshrs                         0                       # number of cycles access was blocked
system.l2.blocked::no_targets                       0                       # number of cycles access was blocked
system.l2.avg_blocked_cycles::no_mshrs            nan                       # average number of cycles each access was blocked
system.l2.avg_blocked_cycles::no_targets          nan                       # average number of cycles each access was blocked
system.l2.writebacks::writebacks                  391                       # number of writebacks
system.l2.writebacks::total                       391                       # number of writebacks
system.l2.CleanEvict_mshr_misses::writebacks           84                       # number of CleanEvict MSHR misses
system.l2.CleanEvict_mshr_misses::total            84                       # number of CleanEvict MSHR misses
system.l2.ReadExReq_mshr_misses::cpu.data         7802                       # number of ReadExReq MSHR misses
system.l2.ReadExReq_mshr_misses::total           7802                       # number of ReadExReq MSHR misses
system.l2.ReadCleanReq_mshr_misses::cpu.inst         2748                       # number of ReadCleanReq MSHR misses
system.l2.ReadCleanReq_mshr_misses::total         2748                       # number of ReadCleanReq MSHR misses
system.l2.ReadSharedReq_mshr_misses::cpu.data         1724                       # number of ReadSharedReq MSHR misses
system.l2.ReadSharedReq_mshr_misses::total         1724                       # number of ReadSharedReq MSHR misses
system.l2.demand_mshr_misses::cpu.inst           2748                       # number of demand (read+write) MSHR misses
system.l2.demand_mshr_misses::cpu.data           9526                       # number of demand (read+write) MSHR misses
system.l2.demand_mshr_misses::total             12274                       # number of demand (read+write) MSHR misses
system.l2.overall_mshr_misses::cpu.inst          2748                       # number of overall MSHR misses
system.l2.overall_mshr_misses::cpu.data          9526                       # number of overall MSHR misses
system.l2.overall_mshr_misses::total            12274                       # number of overall MSHR misses
system.l2.ReadExReq_mshr_miss_latency::cpu.data    596199500                       # number of ReadExReq MSHR miss cycles
system.l2.ReadExReq_mshr_miss_latency::total    596199500                       # number of ReadExReq MSHR miss cycles
system.l2.ReadCleanReq_mshr_miss_latency::cpu.inst    306179000                       # number of ReadCleanReq MSHR miss cycles
system.l2.ReadCleanReq_mshr_miss_latency::total    306179000                       # number of ReadCleanReq MSHR miss cycles
system.l2.ReadSharedReq_mshr_miss_latency::cpu.data    143171500                       # number of ReadSharedReq MSHR miss cycles
system.l2.ReadSharedReq_mshr_miss_latency::total    143171500                       # number of ReadSharedReq MSHR miss cycles
system.l2.demand_mshr_miss_latency::cpu.inst    306179000                       # number of demand (read+write) MSHR miss cycles
system.l2.demand_mshr_miss_latency::cpu.data    739371000                       # number of demand (read+write) MSHR miss cycles
system.l2.demand_mshr_miss_latency::total   1045550000                       # number of demand (read+write) MSHR miss cycles
system.l2.overall_mshr_miss_latency::cpu.inst    306179000                       # number of overall MSHR miss cycles
system.l2.overall_mshr_miss_latency::cpu.data    739371000                       # number of overall MSHR miss cycles
system.l2.overall_mshr_miss_latency::total   1045550000                       # number of overall MSHR miss cycles
system.l2.CleanEvict_mshr_miss_rate::writebacks          inf                       # mshr miss rate for CleanEvict accesses
system.l2.CleanEvict_mshr_miss_rate::total          inf                       # mshr miss rate for CleanEvict accesses
system.l2.ReadExReq_mshr_miss_rate::cpu.data     0.045062                       # mshr miss rate for ReadExReq accesses
system.l2.ReadExReq_mshr_miss_rate::total     0.045062                       # mshr miss rate for ReadExReq accesses
system.l2.ReadCleanReq_mshr_miss_rate::cpu.inst     0.334429                       # mshr miss rate for ReadCleanReq accesses
system.l2.ReadCleanReq_mshr_miss_rate::total     0.334429                       # mshr miss rate for ReadCleanReq accesses
system.l2.ReadSharedReq_mshr_miss_rate::cpu.data     0.035857                       # mshr miss rate for ReadSharedReq accesses
system.l2.ReadSharedReq_mshr_miss_rate::total     0.035857                       # mshr miss rate for ReadSharedReq accesses
system.l2.demand_mshr_miss_rate::cpu.inst     0.334429                       # mshr miss rate for demand accesses
system.l2.demand_mshr_miss_rate::cpu.data     0.043061                       # mshr miss rate for demand accesses
system.l2.demand_mshr_miss_rate::total       0.053496                       # mshr miss rate for demand accesses
system.l2.overall_mshr_miss_rate::cpu.inst     0.334429                       # mshr miss rate for overall accesses
system.l2.overall_mshr_miss_rate::cpu.data     0.043061                       # mshr miss rate for overall accesses
system.l2.overall_mshr_miss_rate::total      0.053496                       # mshr miss rate for overall accesses
system.l2.ReadExReq_avg_mshr_miss_latency::cpu.data 76416.239426                       # average ReadExReq mshr miss latency
system.l2.ReadExReq_avg_mshr_miss_latency::total 76416.239426                       # average ReadExReq mshr miss latency
system.l2.ReadCleanReq_avg_mshr_miss_latency::cpu.inst 111418.850073                       # average ReadCleanReq mshr miss latency
system.l2.ReadCleanReq_avg_mshr_miss_latency::total 111418.850073                       # average ReadCleanReq mshr miss latency
system.l2.ReadSharedReq_avg_mshr_miss_latency::cpu.data 83046.113689                       # average ReadSharedReq mshr miss latency
system.l2.ReadSharedReq_avg_mshr_miss_latency::total 83046.113689                       # average ReadSharedReq mshr miss latency
system.l2.demand_avg_mshr_miss_latency::cpu.inst 111418.850073                       # average overall mshr miss latency
system.l2.demand_avg_mshr_miss_latency::cpu.data 77616.103296                       # average overall mshr miss latency
system.l2.demand_avg_mshr_miss_latency::total 85184.129053                       # average overall mshr miss latency
system.l2.overall_avg_mshr_miss_latency::cpu.inst 111418.850073                       # average overall mshr miss latency
system.l2.overall_avg_mshr_miss_latency::cpu.data 77616.103296                       # average overall mshr miss latency
system.l2.overall_avg_mshr_miss_latency::total 85184.129053                       # average overall mshr miss latency
system.membus.snoop_filter.tot_requests         13318                       # Total number of requests made to the snoop filter.
system.membus.snoop_filter.hit_single_requests         1044                       # Number of requests hitting in the snoop filter with a single holder of the requested data.
system.membus.snoop_filter.hit_multi_requests            0                       # Number of requests hitting in the snoop filter with multiple (>1) holders of the requested data.
system.membus.snoop_filter.tot_snoops               0                       # Total number of snoops made to the snoop filter.
system.membus.snoop_filter.hit_single_snoops            0                       # Number of snoops hitting in the snoop filter with a single holder of the requested data.
system.membus.snoop_filter.hit_multi_snoops            0                       # Number of snoops hitting in the snoop filter with multiple (>1) holders of the requested data.
system.membus.pwrStateResidencyTicks::UNDEFINED 954540133500                       # Cumulative time (in ticks) in various power states
system.membus.trans_dist::ReadResp               4472                       # Transaction distribution
system.membus.trans_dist::WritebackDirty          391                       # Transaction distribution
system.membus.trans_dist::CleanEvict              653                       # Transaction distribution
system.membus.trans_dist::ReadExReq              7802                       # Transaction distribution
system.membus.trans_dist::ReadExResp             7802                       # Transaction distribution
system.membus.trans_dist::ReadSharedReq          4472                       # Transaction distribution
system.membus.pkt_count_system.l2.mem_side::system.mem_ctrls.port        25592                       # Packet count per connected master and slave (bytes)
system.membus.pkt_count_system.l2.mem_side::total        25592                       # Packet count per connected master and slave (bytes)
system.membus.pkt_count::total                  25592                       # Packet count per connected master and slave (bytes)
system.membus.pkt_size_system.l2.mem_side::system.mem_ctrls.port       405280                       # Cumulative packet size per connected master and slave (bytes)
system.membus.pkt_size_system.l2.mem_side::total       405280                       # Cumulative packet size per connected master and slave (bytes)
system.membus.pkt_size::total                  405280                       # Cumulative packet size per connected master and slave (bytes)
system.membus.snoops                                0                       # Total snoops (count)
system.membus.snoopTraffic                          0                       # Total snoop traffic (bytes)
system.membus.snoop_fanout::samples             12274                       # Request fanout histogram
system.membus.snoop_fanout::mean                    0                       # Request fanout histogram
system.membus.snoop_fanout::stdev                   0                       # Request fanout histogram
system.membus.snoop_fanout::underflows              0      0.00%      0.00% # Request fanout histogram
system.membus.snoop_fanout::0                   12274    100.00%    100.00% # Request fanout histogram
system.membus.snoop_fanout::1                       0      0.00%    100.00% # Request fanout histogram
system.membus.snoop_fanout::overflows               0      0.00%    100.00% # Request fanout histogram
system.membus.snoop_fanout::min_value               0                       # Request fanout histogram
system.membus.snoop_fanout::max_value               0                       # Request fanout histogram
system.membus.snoop_fanout::total               12274                       # Request fanout histogram
system.membus.reqLayer2.occupancy            14215000                       # Layer occupancy (ticks)
system.membus.reqLayer2.utilization               0.0                       # Layer utilization (%)
system.membus.respLayer1.occupancy           40788750                       # Layer occupancy (ticks)
system.membus.respLayer1.utilization              0.0                       # Layer utilization (%)
system.tol2bus.snoop_filter.tot_requests       453082                       # Total number of requests made to the snoop filter.
system.tol2bus.snoop_filter.hit_single_requests       223644                       # Number of requests hitting in the snoop filter with a single holder of the requested data.
system.tol2bus.snoop_filter.hit_multi_requests            0                       # Number of requests hitting in the snoop filter with multiple (>1) holders of the requested data.
system.tol2bus.snoop_filter.tot_snoops           1328                       # Total number of snoops made to the snoop filter.
system.tol2bus.snoop_filter.hit_single_snoops         1328                       # Number of snoops hitting in the snoop filter with a single holder of the requested data.
system.tol2bus.snoop_filter.hit_multi_snoops            0                       # Number of snoops hitting in the snoop filter with multiple (>1) holders of the requested data.
system.tol2bus.pwrStateResidencyTicks::UNDEFINED 954540133500                       # Cumulative time (in ticks) in various power states
system.tol2bus.trans_dist::ReadResp             56297                       # Transaction distribution
system.tol2bus.trans_dist::WritebackDirty       213136                       # Transaction distribution
system.tol2bus.trans_dist::WritebackClean         6519                       # Transaction distribution
system.tol2bus.trans_dist::CleanEvict            6277                       # Transaction distribution
system.tol2bus.trans_dist::ReadExReq           173141                       # Transaction distribution
system.tol2bus.trans_dist::ReadExResp          173141                       # Transaction distribution
system.tol2bus.trans_dist::ReadCleanReq          8217                       # Transaction distribution
system.tol2bus.trans_dist::ReadSharedReq        48080                       # Transaction distribution
system.tol2bus.pkt_count_system.cpu.icache.mem_side::system.l2.cpu_side        22953                       # Packet count per connected master and slave (bytes)
system.tol2bus.pkt_count_system.cpu.dcache.mem_side::system.l2.cpu_side       659567                       # Packet count per connected master and slave (bytes)
system.tol2bus.pkt_count::total                682520                       # Packet count per connected master and slave (bytes)
system.tol2bus.pkt_size_system.cpu.icache.mem_side::system.l2.cpu_side       471552                       # Cumulative packet size per connected master and slave (bytes)
system.tol2bus.pkt_size_system.cpu.dcache.mem_side::system.l2.cpu_side     13886912                       # Cumulative packet size per connected master and slave (bytes)
system.tol2bus.pkt_size::total               14358464                       # Cumulative packet size per connected master and slave (bytes)
system.tol2bus.snoops                            2288                       # Total snoops (count)
system.tol2bus.snoopTraffic                     12512                       # Total snoop traffic (bytes)
system.tol2bus.snoop_fanout::samples           231726                       # Request fanout histogram
system.tol2bus.snoop_fanout::mean            0.005731                       # Request fanout histogram
system.tol2bus.snoop_fanout::stdev           0.075486                       # Request fanout histogram
system.tol2bus.snoop_fanout::underflows             0      0.00%      0.00% # Request fanout histogram
system.tol2bus.snoop_fanout::0                 230398     99.43%     99.43% # Request fanout histogram
system.tol2bus.snoop_fanout::1                   1328      0.57%    100.00% # Request fanout histogram
system.tol2bus.snoop_fanout::2                      0      0.00%    100.00% # Request fanout histogram
system.tol2bus.snoop_fanout::3                      0      0.00%    100.00% # Request fanout histogram
system.tol2bus.snoop_fanout::4                      0      0.00%    100.00% # Request fanout histogram
system.tol2bus.snoop_fanout::overflows              0      0.00%    100.00% # Request fanout histogram
system.tol2bus.snoop_fanout::min_value              0                       # Request fanout histogram
system.tol2bus.snoop_fanout::max_value              1                       # Request fanout histogram
system.tol2bus.snoop_fanout::total             231726                       # Request fanout histogram
system.tol2bus.reqLayer0.occupancy          336173000                       # Layer occupancy (ticks)
system.tol2bus.reqLayer0.utilization              0.0                       # Layer utilization (%)
system.tol2bus.respLayer0.occupancy           8217000                       # Layer occupancy (ticks)
system.tol2bus.respLayer0.utilization             0.0                       # Layer utilization (%)
system.tol2bus.respLayer1.occupancy         221221000                       # Layer occupancy (ticks)
system.tol2bus.respLayer1.utilization             0.0                       # Layer utilization (%)

---------- End Simulation Statistics   ----------
