
---------- Begin Simulation Statistics ----------
sim_seconds                                  1.099537                       # Number of seconds simulated
sim_ticks                                1099537334500                       # Number of ticks simulated
final_tick                               1099537334500                       # Number of ticks from beginning of simulation (restored from checkpoints and never reset)
sim_freq                                 1000000000000                       # Frequency of simulated ticks
host_inst_rate                                 371676                       # Simulator instruction rate (inst/s)
host_op_rate                                   542982                       # Simulator op (including micro ops) rate (op/s)
host_tick_rate                              817343920                       # Simulator tick rate (ticks/s)
host_mem_usage                                 659228                       # Number of bytes of host memory used
host_seconds                                  1345.26                       # Real time elapsed on the host
sim_insts                                   500000001                       # Number of instructions simulated
sim_ops                                     730450447                       # Number of ops (including micro ops) simulated
system.voltage_domain.voltage                       1                       # Voltage in Volts
system.clk_domain.clock                          1000                       # Clock period in ticks
system.mem_ctrls.pwrStateResidencyTicks::UNDEFINED 1099537334500                       # Cumulative time (in ticks) in various power states
system.mem_ctrls.bytes_read::cpu.inst           59296                       # Number of bytes read from this memory
system.mem_ctrls.bytes_read::cpu.data        31692032                       # Number of bytes read from this memory
system.mem_ctrls.bytes_read::total           31751328                       # Number of bytes read from this memory
system.mem_ctrls.bytes_inst_read::cpu.inst        59296                       # Number of instructions bytes read from this memory
system.mem_ctrls.bytes_inst_read::total         59296                       # Number of instructions bytes read from this memory
system.mem_ctrls.bytes_written::writebacks     18042976                       # Number of bytes written to this memory
system.mem_ctrls.bytes_written::total        18042976                       # Number of bytes written to this memory
system.mem_ctrls.num_reads::cpu.inst             1853                       # Number of read requests responded to by this memory
system.mem_ctrls.num_reads::cpu.data           990376                       # Number of read requests responded to by this memory
system.mem_ctrls.num_reads::total              992229                       # Number of read requests responded to by this memory
system.mem_ctrls.num_writes::writebacks        563843                       # Number of write requests responded to by this memory
system.mem_ctrls.num_writes::total             563843                       # Number of write requests responded to by this memory
system.mem_ctrls.bw_read::cpu.inst              53928                       # Total read bandwidth from this memory (bytes/s)
system.mem_ctrls.bw_read::cpu.data           28823061                       # Total read bandwidth from this memory (bytes/s)
system.mem_ctrls.bw_read::total              28876989                       # Total read bandwidth from this memory (bytes/s)
system.mem_ctrls.bw_inst_read::cpu.inst         53928                       # Instruction read bandwidth from this memory (bytes/s)
system.mem_ctrls.bw_inst_read::total            53928                       # Instruction read bandwidth from this memory (bytes/s)
system.mem_ctrls.bw_write::writebacks        16409607                       # Write bandwidth from this memory (bytes/s)
system.mem_ctrls.bw_write::total             16409607                       # Write bandwidth from this memory (bytes/s)
system.mem_ctrls.bw_total::writebacks        16409607                       # Total bandwidth to/from this memory (bytes/s)
system.mem_ctrls.bw_total::cpu.inst             53928                       # Total bandwidth to/from this memory (bytes/s)
system.mem_ctrls.bw_total::cpu.data          28823061                       # Total bandwidth to/from this memory (bytes/s)
system.mem_ctrls.bw_total::total             45286597                       # Total bandwidth to/from this memory (bytes/s)
system.mem_ctrls.readReqs                      992229                       # Number of read requests accepted
system.mem_ctrls.writeReqs                     563843                       # Number of write requests accepted
system.mem_ctrls.readBursts                    992229                       # Number of DRAM read bursts, including those serviced by the write queue
system.mem_ctrls.writeBursts                   563843                       # Number of DRAM write bursts, including those merged in the write queue
system.mem_ctrls.bytesReadDRAM               63469568                       # Total number of bytes read from DRAM
system.mem_ctrls.bytesReadWrQ                   33088                       # Total number of bytes read from write queue
system.mem_ctrls.bytesWritten                31454720                       # Total number of bytes written to DRAM
system.mem_ctrls.bytesReadSys                31751328                       # Total read bytes from the system interface side
system.mem_ctrls.bytesWrittenSys             18042976                       # Total written bytes from the system interface side
system.mem_ctrls.servicedByWrQ                    517                       # Number of DRAM read bursts serviced by the write queue
system.mem_ctrls.mergedWrBursts                 72332                       # Number of DRAM write bursts merged with an existing one
system.mem_ctrls.neitherReadNorWriteReqs            0                       # Number of requests that are neither read nor write
system.mem_ctrls.perBankRdBursts::0             64851                       # Per bank write bursts
system.mem_ctrls.perBankRdBursts::1             62909                       # Per bank write bursts
system.mem_ctrls.perBankRdBursts::2             61861                       # Per bank write bursts
system.mem_ctrls.perBankRdBursts::3             60610                       # Per bank write bursts
system.mem_ctrls.perBankRdBursts::4             59665                       # Per bank write bursts
system.mem_ctrls.perBankRdBursts::5             60213                       # Per bank write bursts
system.mem_ctrls.perBankRdBursts::6             62481                       # Per bank write bursts
system.mem_ctrls.perBankRdBursts::7             61569                       # Per bank write bursts
system.mem_ctrls.perBankRdBursts::8             58892                       # Per bank write bursts
system.mem_ctrls.perBankRdBursts::9             58191                       # Per bank write bursts
system.mem_ctrls.perBankRdBursts::10            61621                       # Per bank write bursts
system.mem_ctrls.perBankRdBursts::11            63094                       # Per bank write bursts
system.mem_ctrls.perBankRdBursts::12            63655                       # Per bank write bursts
system.mem_ctrls.perBankRdBursts::13            63513                       # Per bank write bursts
system.mem_ctrls.perBankRdBursts::14            64006                       # Per bank write bursts
system.mem_ctrls.perBankRdBursts::15            64581                       # Per bank write bursts
system.mem_ctrls.perBankWrBursts::0             32235                       # Per bank write bursts
system.mem_ctrls.perBankWrBursts::1             31066                       # Per bank write bursts
system.mem_ctrls.perBankWrBursts::2             30525                       # Per bank write bursts
system.mem_ctrls.perBankWrBursts::3             29734                       # Per bank write bursts
system.mem_ctrls.perBankWrBursts::4             29128                       # Per bank write bursts
system.mem_ctrls.perBankWrBursts::5             28988                       # Per bank write bursts
system.mem_ctrls.perBankWrBursts::6             30150                       # Per bank write bursts
system.mem_ctrls.perBankWrBursts::7             30277                       # Per bank write bursts
system.mem_ctrls.perBankWrBursts::8             29820                       # Per bank write bursts
system.mem_ctrls.perBankWrBursts::9             29595                       # Per bank write bursts
system.mem_ctrls.perBankWrBursts::10            30705                       # Per bank write bursts
system.mem_ctrls.perBankWrBursts::11            31109                       # Per bank write bursts
system.mem_ctrls.perBankWrBursts::12            31502                       # Per bank write bursts
system.mem_ctrls.perBankWrBursts::13            32009                       # Per bank write bursts
system.mem_ctrls.perBankWrBursts::14            32369                       # Per bank write bursts
system.mem_ctrls.perBankWrBursts::15            32268                       # Per bank write bursts
system.mem_ctrls.numRdRetry                         0                       # Number of times read queue was full causing retry
system.mem_ctrls.numWrRetry                         0                       # Number of times write queue was full causing retry
system.mem_ctrls.totGap                  1099534089500                       # Total gap between requests
system.mem_ctrls.readPktSize::0                     0                       # Read request sizes (log2)
system.mem_ctrls.readPktSize::1                     0                       # Read request sizes (log2)
system.mem_ctrls.readPktSize::2                     0                       # Read request sizes (log2)
system.mem_ctrls.readPktSize::3                     0                       # Read request sizes (log2)
system.mem_ctrls.readPktSize::4                     0                       # Read request sizes (log2)
system.mem_ctrls.readPktSize::5                992229                       # Read request sizes (log2)
system.mem_ctrls.readPktSize::6                     0                       # Read request sizes (log2)
system.mem_ctrls.writePktSize::0                    0                       # Write request sizes (log2)
system.mem_ctrls.writePktSize::1                    0                       # Write request sizes (log2)
system.mem_ctrls.writePktSize::2                    0                       # Write request sizes (log2)
system.mem_ctrls.writePktSize::3                    0                       # Write request sizes (log2)
system.mem_ctrls.writePktSize::4                    0                       # Write request sizes (log2)
system.mem_ctrls.writePktSize::5               563843                       # Write request sizes (log2)
system.mem_ctrls.writePktSize::6                    0                       # Write request sizes (log2)
system.mem_ctrls.rdQLenPdf::0                  975283                       # What read queue length does an incoming req see
system.mem_ctrls.rdQLenPdf::1                    8180                       # What read queue length does an incoming req see
system.mem_ctrls.rdQLenPdf::2                    8237                       # What read queue length does an incoming req see
system.mem_ctrls.rdQLenPdf::3                      12                       # What read queue length does an incoming req see
system.mem_ctrls.rdQLenPdf::4                       0                       # What read queue length does an incoming req see
system.mem_ctrls.rdQLenPdf::5                       0                       # What read queue length does an incoming req see
system.mem_ctrls.rdQLenPdf::6                       0                       # What read queue length does an incoming req see
system.mem_ctrls.rdQLenPdf::7                       0                       # What read queue length does an incoming req see
system.mem_ctrls.rdQLenPdf::8                       0                       # What read queue length does an incoming req see
system.mem_ctrls.rdQLenPdf::9                       0                       # What read queue length does an incoming req see
system.mem_ctrls.rdQLenPdf::10                      0                       # What read queue length does an incoming req see
system.mem_ctrls.rdQLenPdf::11                      0                       # What read queue length does an incoming req see
system.mem_ctrls.rdQLenPdf::12                      0                       # What read queue length does an incoming req see
system.mem_ctrls.rdQLenPdf::13                      0                       # What read queue length does an incoming req see
system.mem_ctrls.rdQLenPdf::14                      0                       # What read queue length does an incoming req see
system.mem_ctrls.rdQLenPdf::15                      0                       # What read queue length does an incoming req see
system.mem_ctrls.rdQLenPdf::16                      0                       # What read queue length does an incoming req see
system.mem_ctrls.rdQLenPdf::17                      0                       # What read queue length does an incoming req see
system.mem_ctrls.rdQLenPdf::18                      0                       # What read queue length does an incoming req see
system.mem_ctrls.rdQLenPdf::19                      0                       # What read queue length does an incoming req see
system.mem_ctrls.rdQLenPdf::20                      0                       # What read queue length does an incoming req see
system.mem_ctrls.rdQLenPdf::21                      0                       # What read queue length does an incoming req see
system.mem_ctrls.rdQLenPdf::22                      0                       # What read queue length does an incoming req see
system.mem_ctrls.rdQLenPdf::23                      0                       # What read queue length does an incoming req see
system.mem_ctrls.rdQLenPdf::24                      0                       # What read queue length does an incoming req see
system.mem_ctrls.rdQLenPdf::25                      0                       # What read queue length does an incoming req see
system.mem_ctrls.rdQLenPdf::26                      0                       # What read queue length does an incoming req see
system.mem_ctrls.rdQLenPdf::27                      0                       # What read queue length does an incoming req see
system.mem_ctrls.rdQLenPdf::28                      0                       # What read queue length does an incoming req see
system.mem_ctrls.rdQLenPdf::29                      0                       # What read queue length does an incoming req see
system.mem_ctrls.rdQLenPdf::30                      0                       # What read queue length does an incoming req see
system.mem_ctrls.rdQLenPdf::31                      0                       # What read queue length does an incoming req see
system.mem_ctrls.wrQLenPdf::0                       1                       # What write queue length does an incoming req see
system.mem_ctrls.wrQLenPdf::1                       1                       # What write queue length does an incoming req see
system.mem_ctrls.wrQLenPdf::2                       1                       # What write queue length does an incoming req see
system.mem_ctrls.wrQLenPdf::3                       1                       # What write queue length does an incoming req see
system.mem_ctrls.wrQLenPdf::4                       1                       # What write queue length does an incoming req see
system.mem_ctrls.wrQLenPdf::5                       1                       # What write queue length does an incoming req see
system.mem_ctrls.wrQLenPdf::6                       1                       # What write queue length does an incoming req see
system.mem_ctrls.wrQLenPdf::7                       1                       # What write queue length does an incoming req see
system.mem_ctrls.wrQLenPdf::8                       1                       # What write queue length does an incoming req see
system.mem_ctrls.wrQLenPdf::9                       1                       # What write queue length does an incoming req see
system.mem_ctrls.wrQLenPdf::10                      1                       # What write queue length does an incoming req see
system.mem_ctrls.wrQLenPdf::11                      1                       # What write queue length does an incoming req see
system.mem_ctrls.wrQLenPdf::12                      1                       # What write queue length does an incoming req see
system.mem_ctrls.wrQLenPdf::13                      1                       # What write queue length does an incoming req see
system.mem_ctrls.wrQLenPdf::14                      1                       # What write queue length does an incoming req see
system.mem_ctrls.wrQLenPdf::15                  16670                       # What write queue length does an incoming req see
system.mem_ctrls.wrQLenPdf::16                  17876                       # What write queue length does an incoming req see
system.mem_ctrls.wrQLenPdf::17                  28546                       # What write queue length does an incoming req see
system.mem_ctrls.wrQLenPdf::18                  28558                       # What write queue length does an incoming req see
system.mem_ctrls.wrQLenPdf::19                  28558                       # What write queue length does an incoming req see
system.mem_ctrls.wrQLenPdf::20                  28558                       # What write queue length does an incoming req see
system.mem_ctrls.wrQLenPdf::21                  28559                       # What write queue length does an incoming req see
system.mem_ctrls.wrQLenPdf::22                  28558                       # What write queue length does an incoming req see
system.mem_ctrls.wrQLenPdf::23                  28558                       # What write queue length does an incoming req see
system.mem_ctrls.wrQLenPdf::24                  28558                       # What write queue length does an incoming req see
system.mem_ctrls.wrQLenPdf::25                  28563                       # What write queue length does an incoming req see
system.mem_ctrls.wrQLenPdf::26                  28558                       # What write queue length does an incoming req see
system.mem_ctrls.wrQLenPdf::27                  28560                       # What write queue length does an incoming req see
system.mem_ctrls.wrQLenPdf::28                  28558                       # What write queue length does an incoming req see
system.mem_ctrls.wrQLenPdf::29                  28568                       # What write queue length does an incoming req see
system.mem_ctrls.wrQLenPdf::30                  28569                       # What write queue length does an incoming req see
system.mem_ctrls.wrQLenPdf::31                  28560                       # What write queue length does an incoming req see
system.mem_ctrls.wrQLenPdf::32                  28561                       # What write queue length does an incoming req see
system.mem_ctrls.wrQLenPdf::33                      0                       # What write queue length does an incoming req see
system.mem_ctrls.wrQLenPdf::34                      0                       # What write queue length does an incoming req see
system.mem_ctrls.wrQLenPdf::35                      0                       # What write queue length does an incoming req see
system.mem_ctrls.wrQLenPdf::36                      0                       # What write queue length does an incoming req see
system.mem_ctrls.wrQLenPdf::37                      0                       # What write queue length does an incoming req see
system.mem_ctrls.wrQLenPdf::38                      0                       # What write queue length does an incoming req see
system.mem_ctrls.wrQLenPdf::39                      0                       # What write queue length does an incoming req see
system.mem_ctrls.wrQLenPdf::40                      0                       # What write queue length does an incoming req see
system.mem_ctrls.wrQLenPdf::41                      0                       # What write queue length does an incoming req see
system.mem_ctrls.wrQLenPdf::42                      0                       # What write queue length does an incoming req see
system.mem_ctrls.wrQLenPdf::43                      0                       # What write queue length does an incoming req see
system.mem_ctrls.wrQLenPdf::44                      0                       # What write queue length does an incoming req see
system.mem_ctrls.wrQLenPdf::45                      0                       # What write queue length does an incoming req see
system.mem_ctrls.wrQLenPdf::46                      0                       # What write queue length does an incoming req see
system.mem_ctrls.wrQLenPdf::47                      0                       # What write queue length does an incoming req see
system.mem_ctrls.wrQLenPdf::48                      0                       # What write queue length does an incoming req see
system.mem_ctrls.wrQLenPdf::49                      0                       # What write queue length does an incoming req see
system.mem_ctrls.wrQLenPdf::50                      0                       # What write queue length does an incoming req see
system.mem_ctrls.wrQLenPdf::51                      0                       # What write queue length does an incoming req see
system.mem_ctrls.wrQLenPdf::52                      0                       # What write queue length does an incoming req see
system.mem_ctrls.wrQLenPdf::53                      0                       # What write queue length does an incoming req see
system.mem_ctrls.wrQLenPdf::54                      0                       # What write queue length does an incoming req see
system.mem_ctrls.wrQLenPdf::55                      0                       # What write queue length does an incoming req see
system.mem_ctrls.wrQLenPdf::56                      0                       # What write queue length does an incoming req see
system.mem_ctrls.wrQLenPdf::57                      0                       # What write queue length does an incoming req see
system.mem_ctrls.wrQLenPdf::58                      0                       # What write queue length does an incoming req see
system.mem_ctrls.wrQLenPdf::59                      0                       # What write queue length does an incoming req see
system.mem_ctrls.wrQLenPdf::60                      0                       # What write queue length does an incoming req see
system.mem_ctrls.wrQLenPdf::61                      0                       # What write queue length does an incoming req see
system.mem_ctrls.wrQLenPdf::62                      0                       # What write queue length does an incoming req see
system.mem_ctrls.wrQLenPdf::63                      0                       # What write queue length does an incoming req see
system.mem_ctrls.bytesPerActivate::samples       738659                       # Bytes accessed per row activation
system.mem_ctrls.bytesPerActivate::mean    128.508857                       # Bytes accessed per row activation
system.mem_ctrls.bytesPerActivate::gmean    92.180675                       # Bytes accessed per row activation
system.mem_ctrls.bytesPerActivate::stdev   164.849760                       # Bytes accessed per row activation
system.mem_ctrls.bytesPerActivate::0-127       518996     70.26%     70.26% # Bytes accessed per row activation
system.mem_ctrls.bytesPerActivate::128-255       139018     18.82%     89.08% # Bytes accessed per row activation
system.mem_ctrls.bytesPerActivate::256-383        30194      4.09%     93.17% # Bytes accessed per row activation
system.mem_ctrls.bytesPerActivate::384-511        12435      1.68%     94.85% # Bytes accessed per row activation
system.mem_ctrls.bytesPerActivate::512-639        17047      2.31%     97.16% # Bytes accessed per row activation
system.mem_ctrls.bytesPerActivate::640-767         5183      0.70%     97.86% # Bytes accessed per row activation
system.mem_ctrls.bytesPerActivate::768-895         1812      0.25%     98.11% # Bytes accessed per row activation
system.mem_ctrls.bytesPerActivate::896-1023         1245      0.17%     98.28% # Bytes accessed per row activation
system.mem_ctrls.bytesPerActivate::1024-1151        12729      1.72%    100.00% # Bytes accessed per row activation
system.mem_ctrls.bytesPerActivate::total       738659                       # Bytes accessed per row activation
system.mem_ctrls.rdPerTurnAround::samples        28557                       # Reads before turning the bus around for writes
system.mem_ctrls.rdPerTurnAround::mean      34.705886                       # Reads before turning the bus around for writes
system.mem_ctrls.rdPerTurnAround::gmean     26.557614                       # Reads before turning the bus around for writes
system.mem_ctrls.rdPerTurnAround::stdev    292.076400                       # Reads before turning the bus around for writes
system.mem_ctrls.rdPerTurnAround::0-2047        28547     99.96%     99.96% # Reads before turning the bus around for writes
system.mem_ctrls.rdPerTurnAround::2048-4095            3      0.01%     99.98% # Reads before turning the bus around for writes
system.mem_ctrls.rdPerTurnAround::4096-6143            2      0.01%     99.98% # Reads before turning the bus around for writes
system.mem_ctrls.rdPerTurnAround::6144-8191            1      0.00%     99.99% # Reads before turning the bus around for writes
system.mem_ctrls.rdPerTurnAround::8192-10239            1      0.00%     99.99% # Reads before turning the bus around for writes
system.mem_ctrls.rdPerTurnAround::12288-14335            2      0.01%    100.00% # Reads before turning the bus around for writes
system.mem_ctrls.rdPerTurnAround::40960-43007            1      0.00%    100.00% # Reads before turning the bus around for writes
system.mem_ctrls.rdPerTurnAround::total         28557                       # Reads before turning the bus around for writes
system.mem_ctrls.wrPerTurnAround::samples        28557                       # Writes before turning the bus around for reads
system.mem_ctrls.wrPerTurnAround::mean      17.210491                       # Writes before turning the bus around for reads
system.mem_ctrls.wrPerTurnAround::gmean     17.183445                       # Writes before turning the bus around for reads
system.mem_ctrls.wrPerTurnAround::stdev      0.956794                       # Writes before turning the bus around for reads
system.mem_ctrls.wrPerTurnAround::16            10678     37.39%     37.39% # Writes before turning the bus around for reads
system.mem_ctrls.wrPerTurnAround::17             1210      4.24%     41.63% # Writes before turning the bus around for reads
system.mem_ctrls.wrPerTurnAround::18            16649     58.30%     99.93% # Writes before turning the bus around for reads
system.mem_ctrls.wrPerTurnAround::19               20      0.07%    100.00% # Writes before turning the bus around for reads
system.mem_ctrls.wrPerTurnAround::total         28557                       # Writes before turning the bus around for reads
system.mem_ctrls.totQLat                  26410188250                       # Total ticks spent queuing
system.mem_ctrls.totMemAccLat             45004788250                       # Total ticks spent from burst creation until serviced by the DRAM
system.mem_ctrls.totBusLat                 4958560000                       # Total ticks spent in databus transfers
system.mem_ctrls.avgQLat                     26630.91                       # Average queueing delay per DRAM burst
system.mem_ctrls.avgBusLat                    5000.00                       # Average bus latency per DRAM burst
system.mem_ctrls.avgMemAccLat                45380.91                       # Average memory access latency per DRAM burst
system.mem_ctrls.avgRdBW                        57.72                       # Average DRAM read bandwidth in MiByte/s
system.mem_ctrls.avgWrBW                        28.61                       # Average achieved write bandwidth in MiByte/s
system.mem_ctrls.avgRdBWSys                     28.88                       # Average system read bandwidth in MiByte/s
system.mem_ctrls.avgWrBWSys                     16.41                       # Average system write bandwidth in MiByte/s
system.mem_ctrls.peakBW                      12800.00                       # Theoretical peak bandwidth in MiByte/s
system.mem_ctrls.busUtil                         0.67                       # Data bus utilization in percentage
system.mem_ctrls.busUtilRead                     0.45                       # Data bus utilization in percentage for reads
system.mem_ctrls.busUtilWrite                    0.22                       # Data bus utilization in percentage for writes
system.mem_ctrls.avgRdQLen                       1.00                       # Average read queue length when enqueuing
system.mem_ctrls.avgWrQLen                      25.33                       # Average write queue length when enqueuing
system.mem_ctrls.readRowHits                   531555                       # Number of row buffer hits during reads
system.mem_ctrls.writeRowHits                  212977                       # Number of row buffer hits during writes
system.mem_ctrls.readRowHitRate                 53.60                       # Row buffer hit rate for reads
system.mem_ctrls.writeRowHitRate                43.33                       # Row buffer hit rate for writes
system.mem_ctrls.avgGap                     706608.75                       # Average gap between requests
system.mem_ctrls.pageHitRate                    50.20                       # Row buffer hit rate, read and write combined
system.mem_ctrls_0.actEnergy               2614296720                       # Energy for activate commands per rank (pJ)
system.mem_ctrls_0.preEnergy               1389527865                       # Energy for precharge commands per rank (pJ)
system.mem_ctrls_0.readEnergy              3528295260                       # Energy for read commands per rank (pJ)
system.mem_ctrls_0.writeEnergy             1263777660                       # Energy for write commands per rank (pJ)
system.mem_ctrls_0.refreshEnergy         43019268240.000008                       # Energy for refresh commands per rank (pJ)
system.mem_ctrls_0.actBackEnergy          24822190710                       # Energy for active background per rank (pJ)
system.mem_ctrls_0.preBackEnergy           1629682560                       # Energy for precharge background per rank (pJ)
system.mem_ctrls_0.actPowerDownEnergy    145714028220                       # Energy for active power-down per rank (pJ)
system.mem_ctrls_0.prePowerDownEnergy     43861049280                       # Energy for precharge power-down per rank (pJ)
system.mem_ctrls_0.selfRefreshEnergy     149704646115                       # Energy for self refresh per rank (pJ)
system.mem_ctrls_0.totalEnergy           417557058360                       # Total energy per rank (pJ)
system.mem_ctrls_0.averagePower            379.757052                       # Core power per rank (mW)
system.mem_ctrls_0.totalIdleTime         1040834100250                       # Total Idle time Per DRAM Rank
system.mem_ctrls_0.memoryStateTime::IDLE   2332409500                       # Time in different power states
system.mem_ctrls_0.memoryStateTime::REF   18242138000                       # Time in different power states
system.mem_ctrls_0.memoryStateTime::SREF 607066007500                       # Time in different power states
system.mem_ctrls_0.memoryStateTime::PRE_PDN 114220674500                       # Time in different power states
system.mem_ctrls_0.memoryStateTime::ACT   38126015750                       # Time in different power states
system.mem_ctrls_0.memoryStateTime::ACT_PDN 319550089250                       # Time in different power states
system.mem_ctrls_1.actEnergy               2659735680                       # Energy for activate commands per rank (pJ)
system.mem_ctrls_1.preEnergy               1413683040                       # Energy for precharge commands per rank (pJ)
system.mem_ctrls_1.readEnergy              3552528420                       # Energy for read commands per rank (pJ)
system.mem_ctrls_1.writeEnergy             1301747940                       # Energy for write commands per rank (pJ)
system.mem_ctrls_1.refreshEnergy         42731002080.000008                       # Energy for refresh commands per rank (pJ)
system.mem_ctrls_1.actBackEnergy          24937038300                       # Energy for active background per rank (pJ)
system.mem_ctrls_1.preBackEnergy           1626000000                       # Energy for precharge background per rank (pJ)
system.mem_ctrls_1.actPowerDownEnergy    144261234450                       # Energy for active power-down per rank (pJ)
system.mem_ctrls_1.prePowerDownEnergy     43660069920                       # Energy for precharge power-down per rank (pJ)
system.mem_ctrls_1.selfRefreshEnergy     150522179640                       # Energy for self refresh per rank (pJ)
system.mem_ctrls_1.totalEnergy           416676072780                       # Total energy per rank (pJ)
system.mem_ctrls_1.averagePower            378.955818                       # Core power per rank (mW)
system.mem_ctrls_1.totalIdleTime         1040555291500                       # Total Idle time Per DRAM Rank
system.mem_ctrls_1.memoryStateTime::IDLE   2323157000                       # Time in different power states
system.mem_ctrls_1.memoryStateTime::REF   18119904000                       # Time in different power states
system.mem_ctrls_1.memoryStateTime::SREF 610531949750                       # Time in different power states
system.mem_ctrls_1.memoryStateTime::PRE_PDN 113700229750                       # Time in different power states
system.mem_ctrls_1.memoryStateTime::ACT   38500767000                       # Time in different power states
system.mem_ctrls_1.memoryStateTime::ACT_PDN 316361327000                       # Time in different power states
system.pwrStateResidencyTicks::UNDEFINED 1099537334500                       # Cumulative time (in ticks) in various power states
system.cpu_voltage_domain.voltage                   1                       # Voltage in Volts
system.cpu_clk_domain.clock                       500                       # Clock period in ticks
system.cpu.dtb.walker.pwrStateResidencyTicks::UNDEFINED 1099537334500                       # Cumulative time (in ticks) in various power states
system.cpu.apic_clk_domain.clock                 8000                       # Clock period in ticks
system.cpu.interrupts.pwrStateResidencyTicks::UNDEFINED 1099537334500                       # Cumulative time (in ticks) in various power states
system.cpu.itb.walker.pwrStateResidencyTicks::UNDEFINED 1099537334500                       # Cumulative time (in ticks) in various power states
system.cpu.workload.num_syscalls                   86                       # Number of system calls
system.cpu.pwrStateResidencyTicks::ON    1099537334500                       # Cumulative time (in ticks) in various power states
system.cpu.numCycles                       2199074669                       # number of cpu cycles simulated
system.cpu.numWorkItemsStarted                      0                       # number of work items this cpu started
system.cpu.numWorkItemsCompleted                    0                       # number of work items this cpu completed
system.cpu.committedInsts                   500000001                       # Number of instructions committed
system.cpu.committedOps                     730450447                       # Number of ops (including micro ops) committed
system.cpu.num_int_alu_accesses             729688906                       # Number of integer alu accesses
system.cpu.num_fp_alu_accesses                    663                       # Number of float alu accesses
system.cpu.num_func_calls                     1453961                       # number of times a function call or return occured
system.cpu.num_conditional_control_insts     31770496                       # number of instructions that are conditional controls
system.cpu.num_int_insts                    729688906                       # number of integer instructions
system.cpu.num_fp_insts                           663                       # number of float instructions
system.cpu.num_int_register_reads          1698743411                       # number of times the integer registers were read
system.cpu.num_int_register_writes          621892950                       # number of times the integer registers were written
system.cpu.num_fp_register_reads                 1009                       # number of times the floating registers were read
system.cpu.num_fp_register_writes                 429                       # number of times the floating registers were written
system.cpu.num_cc_register_reads            180840559                       # number of times the CC registers were read
system.cpu.num_cc_register_writes           276245121                       # number of times the CC registers were written
system.cpu.num_mem_refs                     295985461                       # number of memory refs
system.cpu.num_load_insts                   225946751                       # Number of load instructions
system.cpu.num_store_insts                   70038710                       # Number of store instructions
system.cpu.num_idle_cycles                          0                       # Number of idle cycles
system.cpu.num_busy_cycles                 2199074669                       # Number of busy cycles
system.cpu.not_idle_fraction                        1                       # Percentage of non-idle cycles
system.cpu.idle_fraction                            0                       # Percentage of idle cycles
system.cpu.Branches                          37843296                       # Number of branches fetched
system.cpu.op_class::No_OpClass                 94740      0.01%      0.01% # Class of executed instruction
system.cpu.op_class::IntAlu                 434349067     59.46%     59.48% # Class of executed instruction
system.cpu.op_class::IntMult                    20662      0.00%     59.48% # Class of executed instruction
system.cpu.op_class::IntDiv                       119      0.00%     59.48% # Class of executed instruction
system.cpu.op_class::FloatAdd                     398      0.00%     59.48% # Class of executed instruction
system.cpu.op_class::FloatCmp                       0      0.00%     59.48% # Class of executed instruction
system.cpu.op_class::FloatCvt                       0      0.00%     59.48% # Class of executed instruction
system.cpu.op_class::FloatMult                      0      0.00%     59.48% # Class of executed instruction
system.cpu.op_class::FloatDiv                       0      0.00%     59.48% # Class of executed instruction
system.cpu.op_class::FloatSqrt                      0      0.00%     59.48% # Class of executed instruction
system.cpu.op_class::SimdAdd                        0      0.00%     59.48% # Class of executed instruction
system.cpu.op_class::SimdAddAcc                     0      0.00%     59.48% # Class of executed instruction
system.cpu.op_class::SimdAlu                        0      0.00%     59.48% # Class of executed instruction
system.cpu.op_class::SimdCmp                        0      0.00%     59.48% # Class of executed instruction
system.cpu.op_class::SimdCvt                        0      0.00%     59.48% # Class of executed instruction
system.cpu.op_class::SimdMisc                       0      0.00%     59.48% # Class of executed instruction
system.cpu.op_class::SimdMult                       0      0.00%     59.48% # Class of executed instruction
system.cpu.op_class::SimdMultAcc                    0      0.00%     59.48% # Class of executed instruction
system.cpu.op_class::SimdShift                      0      0.00%     59.48% # Class of executed instruction
system.cpu.op_class::SimdShiftAcc                   0      0.00%     59.48% # Class of executed instruction
system.cpu.op_class::SimdSqrt                       0      0.00%     59.48% # Class of executed instruction
system.cpu.op_class::SimdFloatAdd                   0      0.00%     59.48% # Class of executed instruction
system.cpu.op_class::SimdFloatAlu                   0      0.00%     59.48% # Class of executed instruction
system.cpu.op_class::SimdFloatCmp                   0      0.00%     59.48% # Class of executed instruction
system.cpu.op_class::SimdFloatCvt                   0      0.00%     59.48% # Class of executed instruction
system.cpu.op_class::SimdFloatDiv                   0      0.00%     59.48% # Class of executed instruction
system.cpu.op_class::SimdFloatMisc                  0      0.00%     59.48% # Class of executed instruction
system.cpu.op_class::SimdFloatMult                  0      0.00%     59.48% # Class of executed instruction
system.cpu.op_class::SimdFloatMultAcc               0      0.00%     59.48% # Class of executed instruction
system.cpu.op_class::SimdFloatSqrt                  0      0.00%     59.48% # Class of executed instruction
system.cpu.op_class::MemRead                225946751     30.93%     90.41% # Class of executed instruction
system.cpu.op_class::MemWrite                70038710      9.59%    100.00% # Class of executed instruction
system.cpu.op_class::IprAccess                      0      0.00%    100.00% # Class of executed instruction
system.cpu.op_class::InstPrefetch                   0      0.00%    100.00% # Class of executed instruction
system.cpu.op_class::total                  730450447                       # Class of executed instruction
system.cpu.dcache.tags.pwrStateResidencyTicks::UNDEFINED 1099537334500                       # Cumulative time (in ticks) in various power states
system.cpu.dcache.tags.replacements           2695182                       # number of replacements
system.cpu.dcache.tags.tagsinuse          4083.097254                       # Cycle average of tags in use
system.cpu.dcache.tags.total_refs           293286196                       # Total number of references to valid blocks.
system.cpu.dcache.tags.sampled_refs           2699278                       # Sample count of references to valid blocks.
system.cpu.dcache.tags.avg_refs            108.653572                       # Average number of references to valid blocks.
system.cpu.dcache.tags.warmup_cycle        3996234500                       # Cycle when the warmup percentage was hit.
system.cpu.dcache.tags.occ_blocks::cpu.data  4083.097254                       # Average occupied blocks per requestor
system.cpu.dcache.tags.occ_percent::cpu.data     0.996850                       # Average percentage of cache occupancy
system.cpu.dcache.tags.occ_percent::total     0.996850                       # Average percentage of cache occupancy
system.cpu.dcache.tags.occ_task_id_blocks::1024         4096                       # Occupied blocks per task id
system.cpu.dcache.tags.age_task_id_blocks_1024::0            1                       # Occupied blocks per task id
system.cpu.dcache.tags.age_task_id_blocks_1024::1            3                       # Occupied blocks per task id
system.cpu.dcache.tags.age_task_id_blocks_1024::2           32                       # Occupied blocks per task id
system.cpu.dcache.tags.age_task_id_blocks_1024::3         2722                       # Occupied blocks per task id
system.cpu.dcache.tags.age_task_id_blocks_1024::4         1338                       # Occupied blocks per task id
system.cpu.dcache.tags.occ_task_id_percent::1024            1                       # Percentage of cache occupancy per task id
system.cpu.dcache.tags.tag_accesses         298684752                       # Number of tag accesses
system.cpu.dcache.tags.data_accesses        298684752                       # Number of data accesses
system.cpu.dcache.pwrStateResidencyTicks::UNDEFINED 1099537334500                       # Cumulative time (in ticks) in various power states
system.cpu.dcache.ReadReq_hits::cpu.data    223993738                       # number of ReadReq hits
system.cpu.dcache.ReadReq_hits::total       223993738                       # number of ReadReq hits
system.cpu.dcache.WriteReq_hits::cpu.data     69292458                       # number of WriteReq hits
system.cpu.dcache.WriteReq_hits::total       69292458                       # number of WriteReq hits
system.cpu.dcache.demand_hits::cpu.data     293286196                       # number of demand (read+write) hits
system.cpu.dcache.demand_hits::total        293286196                       # number of demand (read+write) hits
system.cpu.dcache.overall_hits::cpu.data    293286196                       # number of overall hits
system.cpu.dcache.overall_hits::total       293286196                       # number of overall hits
system.cpu.dcache.ReadReq_misses::cpu.data      1936640                       # number of ReadReq misses
system.cpu.dcache.ReadReq_misses::total       1936640                       # number of ReadReq misses
system.cpu.dcache.WriteReq_misses::cpu.data       746254                       # number of WriteReq misses
system.cpu.dcache.WriteReq_misses::total       746254                       # number of WriteReq misses
system.cpu.dcache.SoftPFReq_misses::cpu.data        16384                       # number of SoftPFReq misses
system.cpu.dcache.SoftPFReq_misses::total        16384                       # number of SoftPFReq misses
system.cpu.dcache.demand_misses::cpu.data      2682894                       # number of demand (read+write) misses
system.cpu.dcache.demand_misses::total        2682894                       # number of demand (read+write) misses
system.cpu.dcache.overall_misses::cpu.data      2699278                       # number of overall misses
system.cpu.dcache.overall_misses::total       2699278                       # number of overall misses
system.cpu.dcache.ReadReq_miss_latency::cpu.data  69477274500                       # number of ReadReq miss cycles
system.cpu.dcache.ReadReq_miss_latency::total  69477274500                       # number of ReadReq miss cycles
system.cpu.dcache.WriteReq_miss_latency::cpu.data  49185754500                       # number of WriteReq miss cycles
system.cpu.dcache.WriteReq_miss_latency::total  49185754500                       # number of WriteReq miss cycles
system.cpu.dcache.demand_miss_latency::cpu.data 118663029000                       # number of demand (read+write) miss cycles
system.cpu.dcache.demand_miss_latency::total 118663029000                       # number of demand (read+write) miss cycles
system.cpu.dcache.overall_miss_latency::cpu.data 118663029000                       # number of overall miss cycles
system.cpu.dcache.overall_miss_latency::total 118663029000                       # number of overall miss cycles
system.cpu.dcache.ReadReq_accesses::cpu.data    225930378                       # number of ReadReq accesses(hits+misses)
system.cpu.dcache.ReadReq_accesses::total    225930378                       # number of ReadReq accesses(hits+misses)
system.cpu.dcache.WriteReq_accesses::cpu.data     70038712                       # number of WriteReq accesses(hits+misses)
system.cpu.dcache.WriteReq_accesses::total     70038712                       # number of WriteReq accesses(hits+misses)
system.cpu.dcache.SoftPFReq_accesses::cpu.data        16384                       # number of SoftPFReq accesses(hits+misses)
system.cpu.dcache.SoftPFReq_accesses::total        16384                       # number of SoftPFReq accesses(hits+misses)
system.cpu.dcache.demand_accesses::cpu.data    295969090                       # number of demand (read+write) accesses
system.cpu.dcache.demand_accesses::total    295969090                       # number of demand (read+write) accesses
system.cpu.dcache.overall_accesses::cpu.data    295985474                       # number of overall (read+write) accesses
system.cpu.dcache.overall_accesses::total    295985474                       # number of overall (read+write) accesses
system.cpu.dcache.ReadReq_miss_rate::cpu.data     0.008572                       # miss rate for ReadReq accesses
system.cpu.dcache.ReadReq_miss_rate::total     0.008572                       # miss rate for ReadReq accesses
system.cpu.dcache.WriteReq_miss_rate::cpu.data     0.010655                       # miss rate for WriteReq accesses
system.cpu.dcache.WriteReq_miss_rate::total     0.010655                       # miss rate for WriteReq accesses
system.cpu.dcache.SoftPFReq_miss_rate::cpu.data            1                       # miss rate for SoftPFReq accesses
system.cpu.dcache.SoftPFReq_miss_rate::total            1                       # miss rate for SoftPFReq accesses
system.cpu.dcache.demand_miss_rate::cpu.data     0.009065                       # miss rate for demand accesses
system.cpu.dcache.demand_miss_rate::total     0.009065                       # miss rate for demand accesses
system.cpu.dcache.overall_miss_rate::cpu.data     0.009120                       # miss rate for overall accesses
system.cpu.dcache.overall_miss_rate::total     0.009120                       # miss rate for overall accesses
system.cpu.dcache.ReadReq_avg_miss_latency::cpu.data 35875.162395                       # average ReadReq miss latency
system.cpu.dcache.ReadReq_avg_miss_latency::total 35875.162395                       # average ReadReq miss latency
system.cpu.dcache.WriteReq_avg_miss_latency::cpu.data 65910.205506                       # average WriteReq miss latency
system.cpu.dcache.WriteReq_avg_miss_latency::total 65910.205506                       # average WriteReq miss latency
system.cpu.dcache.demand_avg_miss_latency::cpu.data 44229.488381                       # average overall miss latency
system.cpu.dcache.demand_avg_miss_latency::total 44229.488381                       # average overall miss latency
system.cpu.dcache.overall_avg_miss_latency::cpu.data 43961.025504                       # average overall miss latency
system.cpu.dcache.overall_avg_miss_latency::total 43961.025504                       # average overall miss latency
system.cpu.dcache.blocked_cycles::no_mshrs         2488                       # number of cycles access was blocked
system.cpu.dcache.blocked_cycles::no_targets            0                       # number of cycles access was blocked
system.cpu.dcache.blocked::no_mshrs                12                       # number of cycles access was blocked
system.cpu.dcache.blocked::no_targets               0                       # number of cycles access was blocked
system.cpu.dcache.avg_blocked_cycles::no_mshrs   207.333333                       # average number of cycles each access was blocked
system.cpu.dcache.avg_blocked_cycles::no_targets          nan                       # average number of cycles each access was blocked
system.cpu.dcache.writebacks::writebacks      1308442                       # number of writebacks
system.cpu.dcache.writebacks::total           1308442                       # number of writebacks
system.cpu.dcache.ReadReq_mshr_misses::cpu.data      1936640                       # number of ReadReq MSHR misses
system.cpu.dcache.ReadReq_mshr_misses::total      1936640                       # number of ReadReq MSHR misses
system.cpu.dcache.WriteReq_mshr_misses::cpu.data       746254                       # number of WriteReq MSHR misses
system.cpu.dcache.WriteReq_mshr_misses::total       746254                       # number of WriteReq MSHR misses
system.cpu.dcache.SoftPFReq_mshr_misses::cpu.data        16384                       # number of SoftPFReq MSHR misses
system.cpu.dcache.SoftPFReq_mshr_misses::total        16384                       # number of SoftPFReq MSHR misses
system.cpu.dcache.demand_mshr_misses::cpu.data      2682894                       # number of demand (read+write) MSHR misses
system.cpu.dcache.demand_mshr_misses::total      2682894                       # number of demand (read+write) MSHR misses
system.cpu.dcache.overall_mshr_misses::cpu.data      2699278                       # number of overall MSHR misses
system.cpu.dcache.overall_mshr_misses::total      2699278                       # number of overall MSHR misses
system.cpu.dcache.ReadReq_mshr_miss_latency::cpu.data  67540634500                       # number of ReadReq MSHR miss cycles
system.cpu.dcache.ReadReq_mshr_miss_latency::total  67540634500                       # number of ReadReq MSHR miss cycles
system.cpu.dcache.WriteReq_mshr_miss_latency::cpu.data  48439500500                       # number of WriteReq MSHR miss cycles
system.cpu.dcache.WriteReq_mshr_miss_latency::total  48439500500                       # number of WriteReq MSHR miss cycles
system.cpu.dcache.SoftPFReq_mshr_miss_latency::cpu.data   1347662000                       # number of SoftPFReq MSHR miss cycles
system.cpu.dcache.SoftPFReq_mshr_miss_latency::total   1347662000                       # number of SoftPFReq MSHR miss cycles
system.cpu.dcache.demand_mshr_miss_latency::cpu.data 115980135000                       # number of demand (read+write) MSHR miss cycles
system.cpu.dcache.demand_mshr_miss_latency::total 115980135000                       # number of demand (read+write) MSHR miss cycles
system.cpu.dcache.overall_mshr_miss_latency::cpu.data 117327797000                       # number of overall MSHR miss cycles
system.cpu.dcache.overall_mshr_miss_latency::total 117327797000                       # number of overall MSHR miss cycles
system.cpu.dcache.ReadReq_mshr_miss_rate::cpu.data     0.008572                       # mshr miss rate for ReadReq accesses
system.cpu.dcache.ReadReq_mshr_miss_rate::total     0.008572                       # mshr miss rate for ReadReq accesses
system.cpu.dcache.WriteReq_mshr_miss_rate::cpu.data     0.010655                       # mshr miss rate for WriteReq accesses
system.cpu.dcache.WriteReq_mshr_miss_rate::total     0.010655                       # mshr miss rate for WriteReq accesses
system.cpu.dcache.SoftPFReq_mshr_miss_rate::cpu.data            1                       # mshr miss rate for SoftPFReq accesses
system.cpu.dcache.SoftPFReq_mshr_miss_rate::total            1                       # mshr miss rate for SoftPFReq accesses
system.cpu.dcache.demand_mshr_miss_rate::cpu.data     0.009065                       # mshr miss rate for demand accesses
system.cpu.dcache.demand_mshr_miss_rate::total     0.009065                       # mshr miss rate for demand accesses
system.cpu.dcache.overall_mshr_miss_rate::cpu.data     0.009120                       # mshr miss rate for overall accesses
system.cpu.dcache.overall_mshr_miss_rate::total     0.009120                       # mshr miss rate for overall accesses
system.cpu.dcache.ReadReq_avg_mshr_miss_latency::cpu.data 34875.162395                       # average ReadReq mshr miss latency
system.cpu.dcache.ReadReq_avg_mshr_miss_latency::total 34875.162395                       # average ReadReq mshr miss latency
system.cpu.dcache.WriteReq_avg_mshr_miss_latency::cpu.data 64910.205506                       # average WriteReq mshr miss latency
system.cpu.dcache.WriteReq_avg_mshr_miss_latency::total 64910.205506                       # average WriteReq mshr miss latency
system.cpu.dcache.SoftPFReq_avg_mshr_miss_latency::cpu.data 82254.760742                       # average SoftPFReq mshr miss latency
system.cpu.dcache.SoftPFReq_avg_mshr_miss_latency::total 82254.760742                       # average SoftPFReq mshr miss latency
system.cpu.dcache.demand_avg_mshr_miss_latency::cpu.data 43229.488381                       # average overall mshr miss latency
system.cpu.dcache.demand_avg_mshr_miss_latency::total 43229.488381                       # average overall mshr miss latency
system.cpu.dcache.overall_avg_mshr_miss_latency::cpu.data 43466.362857                       # average overall mshr miss latency
system.cpu.dcache.overall_avg_mshr_miss_latency::total 43466.362857                       # average overall mshr miss latency
system.cpu.dtb_walker_cache.tags.pwrStateResidencyTicks::UNDEFINED 1099537334500                       # Cumulative time (in ticks) in various power states
system.cpu.dtb_walker_cache.tags.replacements            0                       # number of replacements
system.cpu.dtb_walker_cache.tags.tagsinuse            0                       # Cycle average of tags in use
system.cpu.dtb_walker_cache.tags.total_refs            0                       # Total number of references to valid blocks.
system.cpu.dtb_walker_cache.tags.sampled_refs            0                       # Sample count of references to valid blocks.
system.cpu.dtb_walker_cache.tags.avg_refs          nan                       # Average number of references to valid blocks.
system.cpu.dtb_walker_cache.tags.warmup_cycle            0                       # Cycle when the warmup percentage was hit.
system.cpu.dtb_walker_cache.tags.tag_accesses            0                       # Number of tag accesses
system.cpu.dtb_walker_cache.tags.data_accesses            0                       # Number of data accesses
system.cpu.dtb_walker_cache.pwrStateResidencyTicks::UNDEFINED 1099537334500                       # Cumulative time (in ticks) in various power states
system.cpu.dtb_walker_cache.blocked_cycles::no_mshrs            0                       # number of cycles access was blocked
system.cpu.dtb_walker_cache.blocked_cycles::no_targets            0                       # number of cycles access was blocked
system.cpu.dtb_walker_cache.blocked::no_mshrs            0                       # number of cycles access was blocked
system.cpu.dtb_walker_cache.blocked::no_targets            0                       # number of cycles access was blocked
system.cpu.dtb_walker_cache.avg_blocked_cycles::no_mshrs          nan                       # average number of cycles each access was blocked
system.cpu.dtb_walker_cache.avg_blocked_cycles::no_targets          nan                       # average number of cycles each access was blocked
system.cpu.icache.tags.pwrStateResidencyTicks::UNDEFINED 1099537334500                       # Cumulative time (in ticks) in various power states
system.cpu.icache.tags.replacements              1254                       # number of replacements
system.cpu.icache.tags.tagsinuse           768.855512                       # Cycle average of tags in use
system.cpu.icache.tags.total_refs           687395728                       # Total number of references to valid blocks.
system.cpu.icache.tags.sampled_refs              2134                       # Sample count of references to valid blocks.
system.cpu.icache.tags.avg_refs          322116.086223                       # Average number of references to valid blocks.
system.cpu.icache.tags.warmup_cycle                 0                       # Cycle when the warmup percentage was hit.
system.cpu.icache.tags.occ_blocks::cpu.inst   768.855512                       # Average occupied blocks per requestor
system.cpu.icache.tags.occ_percent::cpu.inst     0.750835                       # Average percentage of cache occupancy
system.cpu.icache.tags.occ_percent::total     0.750835                       # Average percentage of cache occupancy
system.cpu.icache.tags.occ_task_id_blocks::1024          880                       # Occupied blocks per task id
system.cpu.icache.tags.age_task_id_blocks_1024::1           14                       # Occupied blocks per task id
system.cpu.icache.tags.age_task_id_blocks_1024::3           51                       # Occupied blocks per task id
system.cpu.icache.tags.age_task_id_blocks_1024::4          815                       # Occupied blocks per task id
system.cpu.icache.tags.occ_task_id_percent::1024     0.859375                       # Percentage of cache occupancy per task id
system.cpu.icache.tags.tag_accesses         687399996                       # Number of tag accesses
system.cpu.icache.tags.data_accesses        687399996                       # Number of data accesses
system.cpu.icache.pwrStateResidencyTicks::UNDEFINED 1099537334500                       # Cumulative time (in ticks) in various power states
system.cpu.icache.ReadReq_hits::cpu.inst    687395728                       # number of ReadReq hits
system.cpu.icache.ReadReq_hits::total       687395728                       # number of ReadReq hits
system.cpu.icache.demand_hits::cpu.inst     687395728                       # number of demand (read+write) hits
system.cpu.icache.demand_hits::total        687395728                       # number of demand (read+write) hits
system.cpu.icache.overall_hits::cpu.inst    687395728                       # number of overall hits
system.cpu.icache.overall_hits::total       687395728                       # number of overall hits
system.cpu.icache.ReadReq_misses::cpu.inst         2134                       # number of ReadReq misses
system.cpu.icache.ReadReq_misses::total          2134                       # number of ReadReq misses
system.cpu.icache.demand_misses::cpu.inst         2134                       # number of demand (read+write) misses
system.cpu.icache.demand_misses::total           2134                       # number of demand (read+write) misses
system.cpu.icache.overall_misses::cpu.inst         2134                       # number of overall misses
system.cpu.icache.overall_misses::total          2134                       # number of overall misses
system.cpu.icache.ReadReq_miss_latency::cpu.inst    174783000                       # number of ReadReq miss cycles
system.cpu.icache.ReadReq_miss_latency::total    174783000                       # number of ReadReq miss cycles
system.cpu.icache.demand_miss_latency::cpu.inst    174783000                       # number of demand (read+write) miss cycles
system.cpu.icache.demand_miss_latency::total    174783000                       # number of demand (read+write) miss cycles
system.cpu.icache.overall_miss_latency::cpu.inst    174783000                       # number of overall miss cycles
system.cpu.icache.overall_miss_latency::total    174783000                       # number of overall miss cycles
system.cpu.icache.ReadReq_accesses::cpu.inst    687397862                       # number of ReadReq accesses(hits+misses)
system.cpu.icache.ReadReq_accesses::total    687397862                       # number of ReadReq accesses(hits+misses)
system.cpu.icache.demand_accesses::cpu.inst    687397862                       # number of demand (read+write) accesses
system.cpu.icache.demand_accesses::total    687397862                       # number of demand (read+write) accesses
system.cpu.icache.overall_accesses::cpu.inst    687397862                       # number of overall (read+write) accesses
system.cpu.icache.overall_accesses::total    687397862                       # number of overall (read+write) accesses
system.cpu.icache.ReadReq_miss_rate::cpu.inst     0.000003                       # miss rate for ReadReq accesses
system.cpu.icache.ReadReq_miss_rate::total     0.000003                       # miss rate for ReadReq accesses
system.cpu.icache.demand_miss_rate::cpu.inst     0.000003                       # miss rate for demand accesses
system.cpu.icache.demand_miss_rate::total     0.000003                       # miss rate for demand accesses
system.cpu.icache.overall_miss_rate::cpu.inst     0.000003                       # miss rate for overall accesses
system.cpu.icache.overall_miss_rate::total     0.000003                       # miss rate for overall accesses
system.cpu.icache.ReadReq_avg_miss_latency::cpu.inst 81903.936270                       # average ReadReq miss latency
system.cpu.icache.ReadReq_avg_miss_latency::total 81903.936270                       # average ReadReq miss latency
system.cpu.icache.demand_avg_miss_latency::cpu.inst 81903.936270                       # average overall miss latency
system.cpu.icache.demand_avg_miss_latency::total 81903.936270                       # average overall miss latency
system.cpu.icache.overall_avg_miss_latency::cpu.inst 81903.936270                       # average overall miss latency
system.cpu.icache.overall_avg_miss_latency::total 81903.936270                       # average overall miss latency
system.cpu.icache.blocked_cycles::no_mshrs            0                       # number of cycles access was blocked
system.cpu.icache.blocked_cycles::no_targets            0                       # number of cycles access was blocked
system.cpu.icache.blocked::no_mshrs                 0                       # number of cycles access was blocked
system.cpu.icache.blocked::no_targets               0                       # number of cycles access was blocked
system.cpu.icache.avg_blocked_cycles::no_mshrs          nan                       # average number of cycles each access was blocked
system.cpu.icache.avg_blocked_cycles::no_targets          nan                       # average number of cycles each access was blocked
system.cpu.icache.writebacks::writebacks         1254                       # number of writebacks
system.cpu.icache.writebacks::total              1254                       # number of writebacks
system.cpu.icache.ReadReq_mshr_misses::cpu.inst         2134                       # number of ReadReq MSHR misses
system.cpu.icache.ReadReq_mshr_misses::total         2134                       # number of ReadReq MSHR misses
system.cpu.icache.demand_mshr_misses::cpu.inst         2134                       # number of demand (read+write) MSHR misses
system.cpu.icache.demand_mshr_misses::total         2134                       # number of demand (read+write) MSHR misses
system.cpu.icache.overall_mshr_misses::cpu.inst         2134                       # number of overall MSHR misses
system.cpu.icache.overall_mshr_misses::total         2134                       # number of overall MSHR misses
system.cpu.icache.ReadReq_mshr_miss_latency::cpu.inst    172649000                       # number of ReadReq MSHR miss cycles
system.cpu.icache.ReadReq_mshr_miss_latency::total    172649000                       # number of ReadReq MSHR miss cycles
system.cpu.icache.demand_mshr_miss_latency::cpu.inst    172649000                       # number of demand (read+write) MSHR miss cycles
system.cpu.icache.demand_mshr_miss_latency::total    172649000                       # number of demand (read+write) MSHR miss cycles
system.cpu.icache.overall_mshr_miss_latency::cpu.inst    172649000                       # number of overall MSHR miss cycles
system.cpu.icache.overall_mshr_miss_latency::total    172649000                       # number of overall MSHR miss cycles
system.cpu.icache.ReadReq_mshr_miss_rate::cpu.inst     0.000003                       # mshr miss rate for ReadReq accesses
system.cpu.icache.ReadReq_mshr_miss_rate::total     0.000003                       # mshr miss rate for ReadReq accesses
system.cpu.icache.demand_mshr_miss_rate::cpu.inst     0.000003                       # mshr miss rate for demand accesses
system.cpu.icache.demand_mshr_miss_rate::total     0.000003                       # mshr miss rate for demand accesses
system.cpu.icache.overall_mshr_miss_rate::cpu.inst     0.000003                       # mshr miss rate for overall accesses
system.cpu.icache.overall_mshr_miss_rate::total     0.000003                       # mshr miss rate for overall accesses
system.cpu.icache.ReadReq_avg_mshr_miss_latency::cpu.inst 80903.936270                       # average ReadReq mshr miss latency
system.cpu.icache.ReadReq_avg_mshr_miss_latency::total 80903.936270                       # average ReadReq mshr miss latency
system.cpu.icache.demand_avg_mshr_miss_latency::cpu.inst 80903.936270                       # average overall mshr miss latency
system.cpu.icache.demand_avg_mshr_miss_latency::total 80903.936270                       # average overall mshr miss latency
system.cpu.icache.overall_avg_mshr_miss_latency::cpu.inst 80903.936270                       # average overall mshr miss latency
system.cpu.icache.overall_avg_mshr_miss_latency::total 80903.936270                       # average overall mshr miss latency
system.cpu.itb_walker_cache.tags.pwrStateResidencyTicks::UNDEFINED 1099537334500                       # Cumulative time (in ticks) in various power states
system.cpu.itb_walker_cache.tags.replacements            0                       # number of replacements
system.cpu.itb_walker_cache.tags.tagsinuse            0                       # Cycle average of tags in use
system.cpu.itb_walker_cache.tags.total_refs            0                       # Total number of references to valid blocks.
system.cpu.itb_walker_cache.tags.sampled_refs            0                       # Sample count of references to valid blocks.
system.cpu.itb_walker_cache.tags.avg_refs          nan                       # Average number of references to valid blocks.
system.cpu.itb_walker_cache.tags.warmup_cycle            0                       # Cycle when the warmup percentage was hit.
system.cpu.itb_walker_cache.tags.tag_accesses            0                       # Number of tag accesses
system.cpu.itb_walker_cache.tags.data_accesses            0                       # Number of data accesses
system.cpu.itb_walker_cache.pwrStateResidencyTicks::UNDEFINED 1099537334500                       # Cumulative time (in ticks) in various power states
system.cpu.itb_walker_cache.blocked_cycles::no_mshrs            0                       # number of cycles access was blocked
system.cpu.itb_walker_cache.blocked_cycles::no_targets            0                       # number of cycles access was blocked
system.cpu.itb_walker_cache.blocked::no_mshrs            0                       # number of cycles access was blocked
system.cpu.itb_walker_cache.blocked::no_targets            0                       # number of cycles access was blocked
system.cpu.itb_walker_cache.avg_blocked_cycles::no_mshrs          nan                       # average number of cycles each access was blocked
system.cpu.itb_walker_cache.avg_blocked_cycles::no_targets          nan                       # average number of cycles each access was blocked
system.l2.tags.pwrStateResidencyTicks::UNDEFINED 1099537334500                       # Cumulative time (in ticks) in various power states
system.l2.tags.replacements                    979680                       # number of replacements
system.l2.tags.tagsinuse                 32638.096006                       # Cycle average of tags in use
system.l2.tags.total_refs                     4372935                       # Total number of references to valid blocks.
system.l2.tags.sampled_refs                   1012448                       # Sample count of references to valid blocks.
system.l2.tags.avg_refs                      4.319170                       # Average number of references to valid blocks.
system.l2.tags.warmup_cycle                5516305000                       # Cycle when the warmup percentage was hit.
system.l2.tags.occ_blocks::writebacks      467.547478                       # Average occupied blocks per requestor
system.l2.tags.occ_blocks::cpu.inst         36.598508                       # Average occupied blocks per requestor
system.l2.tags.occ_blocks::cpu.data      32133.950020                       # Average occupied blocks per requestor
system.l2.tags.occ_percent::writebacks       0.014268                       # Average percentage of cache occupancy
system.l2.tags.occ_percent::cpu.inst         0.001117                       # Average percentage of cache occupancy
system.l2.tags.occ_percent::cpu.data         0.980650                       # Average percentage of cache occupancy
system.l2.tags.occ_percent::total            0.996036                       # Average percentage of cache occupancy
system.l2.tags.occ_task_id_blocks::1024         32768                       # Occupied blocks per task id
system.l2.tags.age_task_id_blocks_1024::0            1                       # Occupied blocks per task id
system.l2.tags.age_task_id_blocks_1024::1           26                       # Occupied blocks per task id
system.l2.tags.age_task_id_blocks_1024::2           32                       # Occupied blocks per task id
system.l2.tags.age_task_id_blocks_1024::3          515                       # Occupied blocks per task id
system.l2.tags.age_task_id_blocks_1024::4        32194                       # Occupied blocks per task id
system.l2.tags.occ_task_id_percent::1024            1                       # Percentage of cache occupancy per task id
system.l2.tags.tag_accesses                  11808142                       # Number of tag accesses
system.l2.tags.data_accesses                 11808142                       # Number of data accesses
system.l2.pwrStateResidencyTicks::UNDEFINED 1099537334500                       # Cumulative time (in ticks) in various power states
system.l2.WritebackDirty_hits::writebacks      1308442                       # number of WritebackDirty hits
system.l2.WritebackDirty_hits::total          1308442                       # number of WritebackDirty hits
system.l2.WritebackClean_hits::writebacks         1254                       # number of WritebackClean hits
system.l2.WritebackClean_hits::total             1254                       # number of WritebackClean hits
system.l2.ReadExReq_hits::cpu.data             270837                       # number of ReadExReq hits
system.l2.ReadExReq_hits::total                270837                       # number of ReadExReq hits
system.l2.ReadCleanReq_hits::cpu.inst             281                       # number of ReadCleanReq hits
system.l2.ReadCleanReq_hits::total                281                       # number of ReadCleanReq hits
system.l2.ReadSharedReq_hits::cpu.data        1438065                       # number of ReadSharedReq hits
system.l2.ReadSharedReq_hits::total           1438065                       # number of ReadSharedReq hits
system.l2.demand_hits::cpu.inst                   281                       # number of demand (read+write) hits
system.l2.demand_hits::cpu.data               1708902                       # number of demand (read+write) hits
system.l2.demand_hits::total                  1709183                       # number of demand (read+write) hits
system.l2.overall_hits::cpu.inst                  281                       # number of overall hits
system.l2.overall_hits::cpu.data              1708902                       # number of overall hits
system.l2.overall_hits::total                 1709183                       # number of overall hits
system.l2.ReadExReq_misses::cpu.data           475417                       # number of ReadExReq misses
system.l2.ReadExReq_misses::total              475417                       # number of ReadExReq misses
system.l2.ReadCleanReq_misses::cpu.inst          1853                       # number of ReadCleanReq misses
system.l2.ReadCleanReq_misses::total             1853                       # number of ReadCleanReq misses
system.l2.ReadSharedReq_misses::cpu.data       514959                       # number of ReadSharedReq misses
system.l2.ReadSharedReq_misses::total          514959                       # number of ReadSharedReq misses
system.l2.demand_misses::cpu.inst                1853                       # number of demand (read+write) misses
system.l2.demand_misses::cpu.data              990376                       # number of demand (read+write) misses
system.l2.demand_misses::total                 992229                       # number of demand (read+write) misses
system.l2.overall_misses::cpu.inst               1853                       # number of overall misses
system.l2.overall_misses::cpu.data             990376                       # number of overall misses
system.l2.overall_misses::total                992229                       # number of overall misses
system.l2.ReadExReq_miss_latency::cpu.data  44476331000                       # number of ReadExReq miss cycles
system.l2.ReadExReq_miss_latency::total   44476331000                       # number of ReadExReq miss cycles
system.l2.ReadCleanReq_miss_latency::cpu.inst    166496500                       # number of ReadCleanReq miss cycles
system.l2.ReadCleanReq_miss_latency::total    166496500                       # number of ReadCleanReq miss cycles
system.l2.ReadSharedReq_miss_latency::cpu.data  50859078000                       # number of ReadSharedReq miss cycles
system.l2.ReadSharedReq_miss_latency::total  50859078000                       # number of ReadSharedReq miss cycles
system.l2.demand_miss_latency::cpu.inst     166496500                       # number of demand (read+write) miss cycles
system.l2.demand_miss_latency::cpu.data   95335409000                       # number of demand (read+write) miss cycles
system.l2.demand_miss_latency::total      95501905500                       # number of demand (read+write) miss cycles
system.l2.overall_miss_latency::cpu.inst    166496500                       # number of overall miss cycles
system.l2.overall_miss_latency::cpu.data  95335409000                       # number of overall miss cycles
system.l2.overall_miss_latency::total     95501905500                       # number of overall miss cycles
system.l2.WritebackDirty_accesses::writebacks      1308442                       # number of WritebackDirty accesses(hits+misses)
system.l2.WritebackDirty_accesses::total      1308442                       # number of WritebackDirty accesses(hits+misses)
system.l2.WritebackClean_accesses::writebacks         1254                       # number of WritebackClean accesses(hits+misses)
system.l2.WritebackClean_accesses::total         1254                       # number of WritebackClean accesses(hits+misses)
system.l2.ReadExReq_accesses::cpu.data         746254                       # number of ReadExReq accesses(hits+misses)
system.l2.ReadExReq_accesses::total            746254                       # number of ReadExReq accesses(hits+misses)
system.l2.ReadCleanReq_accesses::cpu.inst         2134                       # number of ReadCleanReq accesses(hits+misses)
system.l2.ReadCleanReq_accesses::total           2134                       # number of ReadCleanReq accesses(hits+misses)
system.l2.ReadSharedReq_accesses::cpu.data      1953024                       # number of ReadSharedReq accesses(hits+misses)
system.l2.ReadSharedReq_accesses::total       1953024                       # number of ReadSharedReq accesses(hits+misses)
system.l2.demand_accesses::cpu.inst              2134                       # number of demand (read+write) accesses
system.l2.demand_accesses::cpu.data           2699278                       # number of demand (read+write) accesses
system.l2.demand_accesses::total              2701412                       # number of demand (read+write) accesses
system.l2.overall_accesses::cpu.inst             2134                       # number of overall (read+write) accesses
system.l2.overall_accesses::cpu.data          2699278                       # number of overall (read+write) accesses
system.l2.overall_accesses::total             2701412                       # number of overall (read+write) accesses
system.l2.ReadExReq_miss_rate::cpu.data      0.637071                       # miss rate for ReadExReq accesses
system.l2.ReadExReq_miss_rate::total         0.637071                       # miss rate for ReadExReq accesses
system.l2.ReadCleanReq_miss_rate::cpu.inst     0.868322                       # miss rate for ReadCleanReq accesses
system.l2.ReadCleanReq_miss_rate::total      0.868322                       # miss rate for ReadCleanReq accesses
system.l2.ReadSharedReq_miss_rate::cpu.data     0.263673                       # miss rate for ReadSharedReq accesses
system.l2.ReadSharedReq_miss_rate::total     0.263673                       # miss rate for ReadSharedReq accesses
system.l2.demand_miss_rate::cpu.inst         0.868322                       # miss rate for demand accesses
system.l2.demand_miss_rate::cpu.data         0.366904                       # miss rate for demand accesses
system.l2.demand_miss_rate::total            0.367300                       # miss rate for demand accesses
system.l2.overall_miss_rate::cpu.inst        0.868322                       # miss rate for overall accesses
system.l2.overall_miss_rate::cpu.data        0.366904                       # miss rate for overall accesses
system.l2.overall_miss_rate::total           0.367300                       # miss rate for overall accesses
system.l2.ReadExReq_avg_miss_latency::cpu.data 93552.252023                       # average ReadExReq miss latency
system.l2.ReadExReq_avg_miss_latency::total 93552.252023                       # average ReadExReq miss latency
system.l2.ReadCleanReq_avg_miss_latency::cpu.inst 89852.401511                       # average ReadCleanReq miss latency
system.l2.ReadCleanReq_avg_miss_latency::total 89852.401511                       # average ReadCleanReq miss latency
system.l2.ReadSharedReq_avg_miss_latency::cpu.data 98763.353976                       # average ReadSharedReq miss latency
system.l2.ReadSharedReq_avg_miss_latency::total 98763.353976                       # average ReadSharedReq miss latency
system.l2.demand_avg_miss_latency::cpu.inst 89852.401511                       # average overall miss latency
system.l2.demand_avg_miss_latency::cpu.data 96261.832880                       # average overall miss latency
system.l2.demand_avg_miss_latency::total 96249.863187                       # average overall miss latency
system.l2.overall_avg_miss_latency::cpu.inst 89852.401511                       # average overall miss latency
system.l2.overall_avg_miss_latency::cpu.data 96261.832880                       # average overall miss latency
system.l2.overall_avg_miss_latency::total 96249.863187                       # average overall miss latency
system.l2.blocked_cycles::no_mshrs                  0                       # number of cycles access was blocked
system.l2.blocked_cycles::no_targets                0                       # number of cycles access was blocked
system.l2.blocked::no_mshrs                         0                       # number of cycles access was blocked
system.l2.blocked::no_targets                       0                       # number of cycles access was blocked
system.l2.avg_blocked_cycles::no_mshrs            nan                       # average number of cycles each access was blocked
system.l2.avg_blocked_cycles::no_targets          nan                       # average number of cycles each access was blocked
system.l2.writebacks::writebacks               563843                       # number of writebacks
system.l2.writebacks::total                    563843                       # number of writebacks
system.l2.CleanEvict_mshr_misses::writebacks        12464                       # number of CleanEvict MSHR misses
system.l2.CleanEvict_mshr_misses::total         12464                       # number of CleanEvict MSHR misses
system.l2.ReadExReq_mshr_misses::cpu.data       475417                       # number of ReadExReq MSHR misses
system.l2.ReadExReq_mshr_misses::total         475417                       # number of ReadExReq MSHR misses
system.l2.ReadCleanReq_mshr_misses::cpu.inst         1853                       # number of ReadCleanReq MSHR misses
system.l2.ReadCleanReq_mshr_misses::total         1853                       # number of ReadCleanReq MSHR misses
system.l2.ReadSharedReq_mshr_misses::cpu.data       514959                       # number of ReadSharedReq MSHR misses
system.l2.ReadSharedReq_mshr_misses::total       514959                       # number of ReadSharedReq MSHR misses
system.l2.demand_mshr_misses::cpu.inst           1853                       # number of demand (read+write) MSHR misses
system.l2.demand_mshr_misses::cpu.data         990376                       # number of demand (read+write) MSHR misses
system.l2.demand_mshr_misses::total            992229                       # number of demand (read+write) MSHR misses
system.l2.overall_mshr_misses::cpu.inst          1853                       # number of overall MSHR misses
system.l2.overall_mshr_misses::cpu.data        990376                       # number of overall MSHR misses
system.l2.overall_mshr_misses::total           992229                       # number of overall MSHR misses
system.l2.ReadExReq_mshr_miss_latency::cpu.data  39722161000                       # number of ReadExReq MSHR miss cycles
system.l2.ReadExReq_mshr_miss_latency::total  39722161000                       # number of ReadExReq MSHR miss cycles
system.l2.ReadCleanReq_mshr_miss_latency::cpu.inst    147966500                       # number of ReadCleanReq MSHR miss cycles
system.l2.ReadCleanReq_mshr_miss_latency::total    147966500                       # number of ReadCleanReq MSHR miss cycles
system.l2.ReadSharedReq_mshr_miss_latency::cpu.data  45709488000                       # number of ReadSharedReq MSHR miss cycles
system.l2.ReadSharedReq_mshr_miss_latency::total  45709488000                       # number of ReadSharedReq MSHR miss cycles
system.l2.demand_mshr_miss_latency::cpu.inst    147966500                       # number of demand (read+write) MSHR miss cycles
system.l2.demand_mshr_miss_latency::cpu.data  85431649000                       # number of demand (read+write) MSHR miss cycles
system.l2.demand_mshr_miss_latency::total  85579615500                       # number of demand (read+write) MSHR miss cycles
system.l2.overall_mshr_miss_latency::cpu.inst    147966500                       # number of overall MSHR miss cycles
system.l2.overall_mshr_miss_latency::cpu.data  85431649000                       # number of overall MSHR miss cycles
system.l2.overall_mshr_miss_latency::total  85579615500                       # number of overall MSHR miss cycles
system.l2.CleanEvict_mshr_miss_rate::writebacks          inf                       # mshr miss rate for CleanEvict accesses
system.l2.CleanEvict_mshr_miss_rate::total          inf                       # mshr miss rate for CleanEvict accesses
system.l2.ReadExReq_mshr_miss_rate::cpu.data     0.637071                       # mshr miss rate for ReadExReq accesses
system.l2.ReadExReq_mshr_miss_rate::total     0.637071                       # mshr miss rate for ReadExReq accesses
system.l2.ReadCleanReq_mshr_miss_rate::cpu.inst     0.868322                       # mshr miss rate for ReadCleanReq accesses
system.l2.ReadCleanReq_mshr_miss_rate::total     0.868322                       # mshr miss rate for ReadCleanReq accesses
system.l2.ReadSharedReq_mshr_miss_rate::cpu.data     0.263673                       # mshr miss rate for ReadSharedReq accesses
system.l2.ReadSharedReq_mshr_miss_rate::total     0.263673                       # mshr miss rate for ReadSharedReq accesses
system.l2.demand_mshr_miss_rate::cpu.inst     0.868322                       # mshr miss rate for demand accesses
system.l2.demand_mshr_miss_rate::cpu.data     0.366904                       # mshr miss rate for demand accesses
system.l2.demand_mshr_miss_rate::total       0.367300                       # mshr miss rate for demand accesses
system.l2.overall_mshr_miss_rate::cpu.inst     0.868322                       # mshr miss rate for overall accesses
system.l2.overall_mshr_miss_rate::cpu.data     0.366904                       # mshr miss rate for overall accesses
system.l2.overall_mshr_miss_rate::total      0.367300                       # mshr miss rate for overall accesses
system.l2.ReadExReq_avg_mshr_miss_latency::cpu.data 83552.252023                       # average ReadExReq mshr miss latency
system.l2.ReadExReq_avg_mshr_miss_latency::total 83552.252023                       # average ReadExReq mshr miss latency
system.l2.ReadCleanReq_avg_mshr_miss_latency::cpu.inst 79852.401511                       # average ReadCleanReq mshr miss latency
system.l2.ReadCleanReq_avg_mshr_miss_latency::total 79852.401511                       # average ReadCleanReq mshr miss latency
system.l2.ReadSharedReq_avg_mshr_miss_latency::cpu.data 88763.353976                       # average ReadSharedReq mshr miss latency
system.l2.ReadSharedReq_avg_mshr_miss_latency::total 88763.353976                       # average ReadSharedReq mshr miss latency
system.l2.demand_avg_mshr_miss_latency::cpu.inst 79852.401511                       # average overall mshr miss latency
system.l2.demand_avg_mshr_miss_latency::cpu.data 86261.832880                       # average overall mshr miss latency
system.l2.demand_avg_mshr_miss_latency::total 86249.863187                       # average overall mshr miss latency
system.l2.overall_avg_mshr_miss_latency::cpu.inst 79852.401511                       # average overall mshr miss latency
system.l2.overall_avg_mshr_miss_latency::cpu.data 86261.832880                       # average overall mshr miss latency
system.l2.overall_avg_mshr_miss_latency::total 86249.863187                       # average overall mshr miss latency
system.membus.snoop_filter.tot_requests       1950888                       # Total number of requests made to the snoop filter.
system.membus.snoop_filter.hit_single_requests       958659                       # Number of requests hitting in the snoop filter with a single holder of the requested data.
system.membus.snoop_filter.hit_multi_requests            0                       # Number of requests hitting in the snoop filter with multiple (>1) holders of the requested data.
system.membus.snoop_filter.tot_snoops               0                       # Total number of snoops made to the snoop filter.
system.membus.snoop_filter.hit_single_snoops            0                       # Number of snoops hitting in the snoop filter with a single holder of the requested data.
system.membus.snoop_filter.hit_multi_snoops            0                       # Number of snoops hitting in the snoop filter with multiple (>1) holders of the requested data.
system.membus.pwrStateResidencyTicks::UNDEFINED 1099537334500                       # Cumulative time (in ticks) in various power states
system.membus.trans_dist::ReadResp             516812                       # Transaction distribution
system.membus.trans_dist::WritebackDirty       563843                       # Transaction distribution
system.membus.trans_dist::CleanEvict           394816                       # Transaction distribution
system.membus.trans_dist::ReadExReq            475417                       # Transaction distribution
system.membus.trans_dist::ReadExResp           475417                       # Transaction distribution
system.membus.trans_dist::ReadSharedReq        516812                       # Transaction distribution
system.membus.pkt_count_system.l2.mem_side::system.mem_ctrls.port      2943117                       # Packet count per connected master and slave (bytes)
system.membus.pkt_count_system.l2.mem_side::total      2943117                       # Packet count per connected master and slave (bytes)
system.membus.pkt_count::total                2943117                       # Packet count per connected master and slave (bytes)
system.membus.pkt_size_system.l2.mem_side::system.mem_ctrls.port     49794304                       # Cumulative packet size per connected master and slave (bytes)
system.membus.pkt_size_system.l2.mem_side::total     49794304                       # Cumulative packet size per connected master and slave (bytes)
system.membus.pkt_size::total                49794304                       # Cumulative packet size per connected master and slave (bytes)
system.membus.snoops                                0                       # Total snoops (count)
system.membus.snoopTraffic                          0                       # Total snoop traffic (bytes)
system.membus.snoop_fanout::samples            992229                       # Request fanout histogram
system.membus.snoop_fanout::mean                    0                       # Request fanout histogram
system.membus.snoop_fanout::stdev                   0                       # Request fanout histogram
system.membus.snoop_fanout::underflows              0      0.00%      0.00% # Request fanout histogram
system.membus.snoop_fanout::0                  992229    100.00%    100.00% # Request fanout histogram
system.membus.snoop_fanout::1                       0      0.00%    100.00% # Request fanout histogram
system.membus.snoop_fanout::overflows               0      0.00%    100.00% # Request fanout histogram
system.membus.snoop_fanout::min_value               0                       # Request fanout histogram
system.membus.snoop_fanout::max_value               0                       # Request fanout histogram
system.membus.snoop_fanout::total              992229                       # Request fanout histogram
system.membus.reqLayer2.occupancy          3078582000                       # Layer occupancy (ticks)
system.membus.reqLayer2.utilization               0.3                       # Layer utilization (%)
system.membus.respLayer1.occupancy         3371371750                       # Layer occupancy (ticks)
system.membus.respLayer1.utilization              0.3                       # Layer utilization (%)
system.tol2bus.snoop_filter.tot_requests      5397848                       # Total number of requests made to the snoop filter.
system.tol2bus.snoop_filter.hit_single_requests      2696436                       # Number of requests hitting in the snoop filter with a single holder of the requested data.
system.tol2bus.snoop_filter.hit_multi_requests            1                       # Number of requests hitting in the snoop filter with multiple (>1) holders of the requested data.
system.tol2bus.snoop_filter.tot_snoops          33485                       # Total number of snoops made to the snoop filter.
system.tol2bus.snoop_filter.hit_single_snoops        33485                       # Number of snoops hitting in the snoop filter with a single holder of the requested data.
system.tol2bus.snoop_filter.hit_multi_snoops            0                       # Number of snoops hitting in the snoop filter with multiple (>1) holders of the requested data.
system.tol2bus.pwrStateResidencyTicks::UNDEFINED 1099537334500                       # Cumulative time (in ticks) in various power states
system.tol2bus.trans_dist::ReadResp           1955158                       # Transaction distribution
system.tol2bus.trans_dist::WritebackDirty      1872285                       # Transaction distribution
system.tol2bus.trans_dist::WritebackClean         1254                       # Transaction distribution
system.tol2bus.trans_dist::CleanEvict         1802577                       # Transaction distribution
system.tol2bus.trans_dist::ReadExReq           746254                       # Transaction distribution
system.tol2bus.trans_dist::ReadExResp          746254                       # Transaction distribution
system.tol2bus.trans_dist::ReadCleanReq          2134                       # Transaction distribution
system.tol2bus.trans_dist::ReadSharedReq      1953024                       # Transaction distribution
system.tol2bus.pkt_count_system.cpu.icache.mem_side::system.l2.cpu_side         5522                       # Packet count per connected master and slave (bytes)
system.tol2bus.pkt_count_system.cpu.dcache.mem_side::system.l2.cpu_side      8093738                       # Packet count per connected master and slave (bytes)
system.tol2bus.pkt_count::total               8099260                       # Packet count per connected master and slave (bytes)
system.tol2bus.pkt_size_system.cpu.icache.mem_side::system.l2.cpu_side       108416                       # Cumulative packet size per connected master and slave (bytes)
system.tol2bus.pkt_size_system.cpu.dcache.mem_side::system.l2.cpu_side    128247040                       # Cumulative packet size per connected master and slave (bytes)
system.tol2bus.pkt_size::total              128355456                       # Cumulative packet size per connected master and slave (bytes)
system.tol2bus.snoops                          979680                       # Total snoops (count)
system.tol2bus.snoopTraffic                  18042976                       # Total snoop traffic (bytes)
system.tol2bus.snoop_fanout::samples          3681092                       # Request fanout histogram
system.tol2bus.snoop_fanout::mean            0.009097                       # Request fanout histogram
system.tol2bus.snoop_fanout::stdev           0.094942                       # Request fanout histogram
system.tol2bus.snoop_fanout::underflows             0      0.00%      0.00% # Request fanout histogram
system.tol2bus.snoop_fanout::0                3647606     99.09%     99.09% # Request fanout histogram
system.tol2bus.snoop_fanout::1                  33486      0.91%    100.00% # Request fanout histogram
system.tol2bus.snoop_fanout::2                      0      0.00%    100.00% # Request fanout histogram
system.tol2bus.snoop_fanout::3                      0      0.00%    100.00% # Request fanout histogram
system.tol2bus.snoop_fanout::4                      0      0.00%    100.00% # Request fanout histogram
system.tol2bus.snoop_fanout::overflows              0      0.00%    100.00% # Request fanout histogram
system.tol2bus.snoop_fanout::min_value              0                       # Request fanout histogram
system.tol2bus.snoop_fanout::max_value              1                       # Request fanout histogram
system.tol2bus.snoop_fanout::total            3681092                       # Request fanout histogram
system.tol2bus.reqLayer0.occupancy         3353772000                       # Layer occupancy (ticks)
system.tol2bus.reqLayer0.utilization              0.3                       # Layer utilization (%)
system.tol2bus.respLayer0.occupancy           2134000                       # Layer occupancy (ticks)
system.tol2bus.respLayer0.utilization             0.0                       # Layer utilization (%)
system.tol2bus.respLayer1.occupancy        2699278000                       # Layer occupancy (ticks)
system.tol2bus.respLayer1.utilization             0.2                       # Layer utilization (%)

---------- End Simulation Statistics   ----------
