
---------- Begin Simulation Statistics ----------
sim_seconds                                  1.765984                       # Number of seconds simulated
sim_ticks                                1765984122500                       # Number of ticks simulated
final_tick                               1765984122500                       # Number of ticks from beginning of simulation (restored from checkpoints and never reset)
sim_freq                                 1000000000000                       # Frequency of simulated ticks
host_inst_rate                                 308396                       # Simulator instruction rate (inst/s)
host_op_rate                                   540504                       # Simulator op (including micro ops) rate (op/s)
host_tick_rate                             1089245793                       # Simulator tick rate (ticks/s)
host_mem_usage                                 653348                       # Number of bytes of host memory used
host_seconds                                  1621.29                       # Real time elapsed on the host
sim_insts                                   500000000                       # Number of instructions simulated
sim_ops                                     876313784                       # Number of ops (including micro ops) simulated
system.voltage_domain.voltage                       1                       # Voltage in Volts
system.clk_domain.clock                          1000                       # Clock period in ticks
system.mem_ctrls.pwrStateResidencyTicks::UNDEFINED 1765984122500                       # Cumulative time (in ticks) in various power states
system.mem_ctrls.bytes_read::cpu.inst           47232                       # Number of bytes read from this memory
system.mem_ctrls.bytes_read::cpu.data       406698176                       # Number of bytes read from this memory
system.mem_ctrls.bytes_read::total          406745408                       # Number of bytes read from this memory
system.mem_ctrls.bytes_inst_read::cpu.inst        47232                       # Number of instructions bytes read from this memory
system.mem_ctrls.bytes_inst_read::total         47232                       # Number of instructions bytes read from this memory
system.mem_ctrls.bytes_written::writebacks     71000512                       # Number of bytes written to this memory
system.mem_ctrls.bytes_written::total        71000512                       # Number of bytes written to this memory
system.mem_ctrls.num_reads::cpu.inst              738                       # Number of read requests responded to by this memory
system.mem_ctrls.num_reads::cpu.data          6354659                       # Number of read requests responded to by this memory
system.mem_ctrls.num_reads::total             6355397                       # Number of read requests responded to by this memory
system.mem_ctrls.num_writes::writebacks       1109383                       # Number of write requests responded to by this memory
system.mem_ctrls.num_writes::total            1109383                       # Number of write requests responded to by this memory
system.mem_ctrls.bw_read::cpu.inst              26745                       # Total read bandwidth from this memory (bytes/s)
system.mem_ctrls.bw_read::cpu.data          230295488                       # Total read bandwidth from this memory (bytes/s)
system.mem_ctrls.bw_read::total             230322234                       # Total read bandwidth from this memory (bytes/s)
system.mem_ctrls.bw_inst_read::cpu.inst         26745                       # Instruction read bandwidth from this memory (bytes/s)
system.mem_ctrls.bw_inst_read::total            26745                       # Instruction read bandwidth from this memory (bytes/s)
system.mem_ctrls.bw_write::writebacks        40204502                       # Write bandwidth from this memory (bytes/s)
system.mem_ctrls.bw_write::total             40204502                       # Write bandwidth from this memory (bytes/s)
system.mem_ctrls.bw_total::writebacks        40204502                       # Total bandwidth to/from this memory (bytes/s)
system.mem_ctrls.bw_total::cpu.inst             26745                       # Total bandwidth to/from this memory (bytes/s)
system.mem_ctrls.bw_total::cpu.data         230295488                       # Total bandwidth to/from this memory (bytes/s)
system.mem_ctrls.bw_total::total            270526736                       # Total bandwidth to/from this memory (bytes/s)
system.mem_ctrls.readReqs                     6355397                       # Number of read requests accepted
system.mem_ctrls.writeReqs                    1109383                       # Number of write requests accepted
system.mem_ctrls.readBursts                   6355397                       # Number of DRAM read bursts, including those serviced by the write queue
system.mem_ctrls.writeBursts                  1109383                       # Number of DRAM write bursts, including those merged in the write queue
system.mem_ctrls.bytesReadDRAM              406164352                       # Total number of bytes read from DRAM
system.mem_ctrls.bytesReadWrQ                  581056                       # Total number of bytes read from write queue
system.mem_ctrls.bytesWritten                70997888                       # Total number of bytes written to DRAM
system.mem_ctrls.bytesReadSys               406745408                       # Total read bytes from the system interface side
system.mem_ctrls.bytesWrittenSys             71000512                       # Total written bytes from the system interface side
system.mem_ctrls.servicedByWrQ                   9079                       # Number of DRAM read bursts serviced by the write queue
system.mem_ctrls.mergedWrBursts                    24                       # Number of DRAM write bursts merged with an existing one
system.mem_ctrls.neitherReadNorWriteReqs            0                       # Number of requests that are neither read nor write
system.mem_ctrls.perBankRdBursts::0            410160                       # Per bank write bursts
system.mem_ctrls.perBankRdBursts::1            392472                       # Per bank write bursts
system.mem_ctrls.perBankRdBursts::2            391912                       # Per bank write bursts
system.mem_ctrls.perBankRdBursts::3            406297                       # Per bank write bursts
system.mem_ctrls.perBankRdBursts::4            385147                       # Per bank write bursts
system.mem_ctrls.perBankRdBursts::5            388102                       # Per bank write bursts
system.mem_ctrls.perBankRdBursts::6            392852                       # Per bank write bursts
system.mem_ctrls.perBankRdBursts::7            383537                       # Per bank write bursts
system.mem_ctrls.perBankRdBursts::8            393429                       # Per bank write bursts
system.mem_ctrls.perBankRdBursts::9            390063                       # Per bank write bursts
system.mem_ctrls.perBankRdBursts::10           391149                       # Per bank write bursts
system.mem_ctrls.perBankRdBursts::11           394602                       # Per bank write bursts
system.mem_ctrls.perBankRdBursts::12           405620                       # Per bank write bursts
system.mem_ctrls.perBankRdBursts::13           408729                       # Per bank write bursts
system.mem_ctrls.perBankRdBursts::14           405122                       # Per bank write bursts
system.mem_ctrls.perBankRdBursts::15           407125                       # Per bank write bursts
system.mem_ctrls.perBankWrBursts::0             71675                       # Per bank write bursts
system.mem_ctrls.perBankWrBursts::1             70878                       # Per bank write bursts
system.mem_ctrls.perBankWrBursts::2             70795                       # Per bank write bursts
system.mem_ctrls.perBankWrBursts::3             73559                       # Per bank write bursts
system.mem_ctrls.perBankWrBursts::4             67929                       # Per bank write bursts
system.mem_ctrls.perBankWrBursts::5             66006                       # Per bank write bursts
system.mem_ctrls.perBankWrBursts::6             68392                       # Per bank write bursts
system.mem_ctrls.perBankWrBursts::7             65717                       # Per bank write bursts
system.mem_ctrls.perBankWrBursts::8             67054                       # Per bank write bursts
system.mem_ctrls.perBankWrBursts::9             65793                       # Per bank write bursts
system.mem_ctrls.perBankWrBursts::10            66095                       # Per bank write bursts
system.mem_ctrls.perBankWrBursts::11            69185                       # Per bank write bursts
system.mem_ctrls.perBankWrBursts::12            71732                       # Per bank write bursts
system.mem_ctrls.perBankWrBursts::13            71747                       # Per bank write bursts
system.mem_ctrls.perBankWrBursts::14            71314                       # Per bank write bursts
system.mem_ctrls.perBankWrBursts::15            71471                       # Per bank write bursts
system.mem_ctrls.numRdRetry                         0                       # Number of times read queue was full causing retry
system.mem_ctrls.numWrRetry                         0                       # Number of times write queue was full causing retry
system.mem_ctrls.totGap                  1765966515500                       # Total gap between requests
system.mem_ctrls.readPktSize::0                     0                       # Read request sizes (log2)
system.mem_ctrls.readPktSize::1                     0                       # Read request sizes (log2)
system.mem_ctrls.readPktSize::2                     0                       # Read request sizes (log2)
system.mem_ctrls.readPktSize::3                     0                       # Read request sizes (log2)
system.mem_ctrls.readPktSize::4                     0                       # Read request sizes (log2)
system.mem_ctrls.readPktSize::5                     0                       # Read request sizes (log2)
system.mem_ctrls.readPktSize::6               6355397                       # Read request sizes (log2)
system.mem_ctrls.writePktSize::0                    0                       # Write request sizes (log2)
system.mem_ctrls.writePktSize::1                    0                       # Write request sizes (log2)
system.mem_ctrls.writePktSize::2                    0                       # Write request sizes (log2)
system.mem_ctrls.writePktSize::3                    0                       # Write request sizes (log2)
system.mem_ctrls.writePktSize::4                    0                       # Write request sizes (log2)
system.mem_ctrls.writePktSize::5                    0                       # Write request sizes (log2)
system.mem_ctrls.writePktSize::6              1109383                       # Write request sizes (log2)
system.mem_ctrls.rdQLenPdf::0                 6346318                       # What read queue length does an incoming req see
system.mem_ctrls.rdQLenPdf::1                       0                       # What read queue length does an incoming req see
system.mem_ctrls.rdQLenPdf::2                       0                       # What read queue length does an incoming req see
system.mem_ctrls.rdQLenPdf::3                       0                       # What read queue length does an incoming req see
system.mem_ctrls.rdQLenPdf::4                       0                       # What read queue length does an incoming req see
system.mem_ctrls.rdQLenPdf::5                       0                       # What read queue length does an incoming req see
system.mem_ctrls.rdQLenPdf::6                       0                       # What read queue length does an incoming req see
system.mem_ctrls.rdQLenPdf::7                       0                       # What read queue length does an incoming req see
system.mem_ctrls.rdQLenPdf::8                       0                       # What read queue length does an incoming req see
system.mem_ctrls.rdQLenPdf::9                       0                       # What read queue length does an incoming req see
system.mem_ctrls.rdQLenPdf::10                      0                       # What read queue length does an incoming req see
system.mem_ctrls.rdQLenPdf::11                      0                       # What read queue length does an incoming req see
system.mem_ctrls.rdQLenPdf::12                      0                       # What read queue length does an incoming req see
system.mem_ctrls.rdQLenPdf::13                      0                       # What read queue length does an incoming req see
system.mem_ctrls.rdQLenPdf::14                      0                       # What read queue length does an incoming req see
system.mem_ctrls.rdQLenPdf::15                      0                       # What read queue length does an incoming req see
system.mem_ctrls.rdQLenPdf::16                      0                       # What read queue length does an incoming req see
system.mem_ctrls.rdQLenPdf::17                      0                       # What read queue length does an incoming req see
system.mem_ctrls.rdQLenPdf::18                      0                       # What read queue length does an incoming req see
system.mem_ctrls.rdQLenPdf::19                      0                       # What read queue length does an incoming req see
system.mem_ctrls.rdQLenPdf::20                      0                       # What read queue length does an incoming req see
system.mem_ctrls.rdQLenPdf::21                      0                       # What read queue length does an incoming req see
system.mem_ctrls.rdQLenPdf::22                      0                       # What read queue length does an incoming req see
system.mem_ctrls.rdQLenPdf::23                      0                       # What read queue length does an incoming req see
system.mem_ctrls.rdQLenPdf::24                      0                       # What read queue length does an incoming req see
system.mem_ctrls.rdQLenPdf::25                      0                       # What read queue length does an incoming req see
system.mem_ctrls.rdQLenPdf::26                      0                       # What read queue length does an incoming req see
system.mem_ctrls.rdQLenPdf::27                      0                       # What read queue length does an incoming req see
system.mem_ctrls.rdQLenPdf::28                      0                       # What read queue length does an incoming req see
system.mem_ctrls.rdQLenPdf::29                      0                       # What read queue length does an incoming req see
system.mem_ctrls.rdQLenPdf::30                      0                       # What read queue length does an incoming req see
system.mem_ctrls.rdQLenPdf::31                      0                       # What read queue length does an incoming req see
system.mem_ctrls.wrQLenPdf::0                       1                       # What write queue length does an incoming req see
system.mem_ctrls.wrQLenPdf::1                       1                       # What write queue length does an incoming req see
system.mem_ctrls.wrQLenPdf::2                       1                       # What write queue length does an incoming req see
system.mem_ctrls.wrQLenPdf::3                       1                       # What write queue length does an incoming req see
system.mem_ctrls.wrQLenPdf::4                       1                       # What write queue length does an incoming req see
system.mem_ctrls.wrQLenPdf::5                       1                       # What write queue length does an incoming req see
system.mem_ctrls.wrQLenPdf::6                       1                       # What write queue length does an incoming req see
system.mem_ctrls.wrQLenPdf::7                       1                       # What write queue length does an incoming req see
system.mem_ctrls.wrQLenPdf::8                       1                       # What write queue length does an incoming req see
system.mem_ctrls.wrQLenPdf::9                       1                       # What write queue length does an incoming req see
system.mem_ctrls.wrQLenPdf::10                      1                       # What write queue length does an incoming req see
system.mem_ctrls.wrQLenPdf::11                      1                       # What write queue length does an incoming req see
system.mem_ctrls.wrQLenPdf::12                      1                       # What write queue length does an incoming req see
system.mem_ctrls.wrQLenPdf::13                      1                       # What write queue length does an incoming req see
system.mem_ctrls.wrQLenPdf::14                      1                       # What write queue length does an incoming req see
system.mem_ctrls.wrQLenPdf::15                  29194                       # What write queue length does an incoming req see
system.mem_ctrls.wrQLenPdf::16                  30561                       # What write queue length does an incoming req see
system.mem_ctrls.wrQLenPdf::17                  65590                       # What write queue length does an incoming req see
system.mem_ctrls.wrQLenPdf::18                  65598                       # What write queue length does an incoming req see
system.mem_ctrls.wrQLenPdf::19                  65600                       # What write queue length does an incoming req see
system.mem_ctrls.wrQLenPdf::20                  65599                       # What write queue length does an incoming req see
system.mem_ctrls.wrQLenPdf::21                  65600                       # What write queue length does an incoming req see
system.mem_ctrls.wrQLenPdf::22                  65601                       # What write queue length does an incoming req see
system.mem_ctrls.wrQLenPdf::23                  65599                       # What write queue length does an incoming req see
system.mem_ctrls.wrQLenPdf::24                  65598                       # What write queue length does an incoming req see
system.mem_ctrls.wrQLenPdf::25                  65601                       # What write queue length does an incoming req see
system.mem_ctrls.wrQLenPdf::26                  65600                       # What write queue length does an incoming req see
system.mem_ctrls.wrQLenPdf::27                  65599                       # What write queue length does an incoming req see
system.mem_ctrls.wrQLenPdf::28                  65599                       # What write queue length does an incoming req see
system.mem_ctrls.wrQLenPdf::29                  65607                       # What write queue length does an incoming req see
system.mem_ctrls.wrQLenPdf::30                  65600                       # What write queue length does an incoming req see
system.mem_ctrls.wrQLenPdf::31                  65600                       # What write queue length does an incoming req see
system.mem_ctrls.wrQLenPdf::32                  65598                       # What write queue length does an incoming req see
system.mem_ctrls.wrQLenPdf::33                      0                       # What write queue length does an incoming req see
system.mem_ctrls.wrQLenPdf::34                      0                       # What write queue length does an incoming req see
system.mem_ctrls.wrQLenPdf::35                      0                       # What write queue length does an incoming req see
system.mem_ctrls.wrQLenPdf::36                      0                       # What write queue length does an incoming req see
system.mem_ctrls.wrQLenPdf::37                      0                       # What write queue length does an incoming req see
system.mem_ctrls.wrQLenPdf::38                      0                       # What write queue length does an incoming req see
system.mem_ctrls.wrQLenPdf::39                      0                       # What write queue length does an incoming req see
system.mem_ctrls.wrQLenPdf::40                      0                       # What write queue length does an incoming req see
system.mem_ctrls.wrQLenPdf::41                      0                       # What write queue length does an incoming req see
system.mem_ctrls.wrQLenPdf::42                      0                       # What write queue length does an incoming req see
system.mem_ctrls.wrQLenPdf::43                      0                       # What write queue length does an incoming req see
system.mem_ctrls.wrQLenPdf::44                      0                       # What write queue length does an incoming req see
system.mem_ctrls.wrQLenPdf::45                      0                       # What write queue length does an incoming req see
system.mem_ctrls.wrQLenPdf::46                      0                       # What write queue length does an incoming req see
system.mem_ctrls.wrQLenPdf::47                      0                       # What write queue length does an incoming req see
system.mem_ctrls.wrQLenPdf::48                      0                       # What write queue length does an incoming req see
system.mem_ctrls.wrQLenPdf::49                      0                       # What write queue length does an incoming req see
system.mem_ctrls.wrQLenPdf::50                      0                       # What write queue length does an incoming req see
system.mem_ctrls.wrQLenPdf::51                      0                       # What write queue length does an incoming req see
system.mem_ctrls.wrQLenPdf::52                      0                       # What write queue length does an incoming req see
system.mem_ctrls.wrQLenPdf::53                      0                       # What write queue length does an incoming req see
system.mem_ctrls.wrQLenPdf::54                      0                       # What write queue length does an incoming req see
system.mem_ctrls.wrQLenPdf::55                      0                       # What write queue length does an incoming req see
system.mem_ctrls.wrQLenPdf::56                      0                       # What write queue length does an incoming req see
system.mem_ctrls.wrQLenPdf::57                      0                       # What write queue length does an incoming req see
system.mem_ctrls.wrQLenPdf::58                      0                       # What write queue length does an incoming req see
system.mem_ctrls.wrQLenPdf::59                      0                       # What write queue length does an incoming req see
system.mem_ctrls.wrQLenPdf::60                      0                       # What write queue length does an incoming req see
system.mem_ctrls.wrQLenPdf::61                      0                       # What write queue length does an incoming req see
system.mem_ctrls.wrQLenPdf::62                      0                       # What write queue length does an incoming req see
system.mem_ctrls.wrQLenPdf::63                      0                       # What write queue length does an incoming req see
system.mem_ctrls.bytesPerActivate::samples      5567947                       # Bytes accessed per row activation
system.mem_ctrls.bytesPerActivate::mean     85.698057                       # Bytes accessed per row activation
system.mem_ctrls.bytesPerActivate::gmean    71.738976                       # Bytes accessed per row activation
system.mem_ctrls.bytesPerActivate::stdev   111.476522                       # Bytes accessed per row activation
system.mem_ctrls.bytesPerActivate::0-127      5022348     90.20%     90.20% # Bytes accessed per row activation
system.mem_ctrls.bytesPerActivate::128-255       393238      7.06%     97.26% # Bytes accessed per row activation
system.mem_ctrls.bytesPerActivate::256-383        38782      0.70%     97.96% # Bytes accessed per row activation
system.mem_ctrls.bytesPerActivate::384-511        18248      0.33%     98.29% # Bytes accessed per row activation
system.mem_ctrls.bytesPerActivate::512-639        13690      0.25%     98.53% # Bytes accessed per row activation
system.mem_ctrls.bytesPerActivate::640-767        14104      0.25%     98.79% # Bytes accessed per row activation
system.mem_ctrls.bytesPerActivate::768-895         9768      0.18%     98.96% # Bytes accessed per row activation
system.mem_ctrls.bytesPerActivate::896-1023         8429      0.15%     99.11% # Bytes accessed per row activation
system.mem_ctrls.bytesPerActivate::1024-1151        49340      0.89%    100.00% # Bytes accessed per row activation
system.mem_ctrls.bytesPerActivate::total      5567947                       # Bytes accessed per row activation
system.mem_ctrls.rdPerTurnAround::samples        65598                       # Reads before turning the bus around for writes
system.mem_ctrls.rdPerTurnAround::mean      96.745480                       # Reads before turning the bus around for writes
system.mem_ctrls.rdPerTurnAround::gmean     57.606609                       # Reads before turning the bus around for writes
system.mem_ctrls.rdPerTurnAround::stdev    114.828610                       # Reads before turning the bus around for writes
system.mem_ctrls.rdPerTurnAround::0-255         58029     88.46%     88.46% # Reads before turning the bus around for writes
system.mem_ctrls.rdPerTurnAround::256-511         7107     10.83%     99.30% # Reads before turning the bus around for writes
system.mem_ctrls.rdPerTurnAround::512-767          407      0.62%     99.92% # Reads before turning the bus around for writes
system.mem_ctrls.rdPerTurnAround::768-1023           50      0.08%     99.99% # Reads before turning the bus around for writes
system.mem_ctrls.rdPerTurnAround::1024-1279            3      0.00%    100.00% # Reads before turning the bus around for writes
system.mem_ctrls.rdPerTurnAround::1280-1535            1      0.00%    100.00% # Reads before turning the bus around for writes
system.mem_ctrls.rdPerTurnAround::6656-6911            1      0.00%    100.00% # Reads before turning the bus around for writes
system.mem_ctrls.rdPerTurnAround::total         65598                       # Reads before turning the bus around for writes
system.mem_ctrls.wrPerTurnAround::samples        65598                       # Writes before turning the bus around for reads
system.mem_ctrls.wrPerTurnAround::mean      16.911217                       # Writes before turning the bus around for reads
system.mem_ctrls.wrPerTurnAround::gmean     16.882647                       # Writes before turning the bus around for reads
system.mem_ctrls.wrPerTurnAround::stdev      0.986014                       # Writes before turning the bus around for reads
system.mem_ctrls.wrPerTurnAround::16            35038     53.41%     53.41% # Writes before turning the bus around for reads
system.mem_ctrls.wrPerTurnAround::17             1366      2.08%     55.50% # Writes before turning the bus around for reads
system.mem_ctrls.wrPerTurnAround::18            29174     44.47%     99.97% # Writes before turning the bus around for reads
system.mem_ctrls.wrPerTurnAround::19               20      0.03%    100.00% # Writes before turning the bus around for reads
system.mem_ctrls.wrPerTurnAround::total         65598                       # Writes before turning the bus around for reads
system.mem_ctrls.totQLat                 200003466500                       # Total ticks spent queuing
system.mem_ctrls.totMemAccLat            318996929000                       # Total ticks spent from burst creation until serviced by the DRAM
system.mem_ctrls.totBusLat                31731590000                       # Total ticks spent in databus transfers
system.mem_ctrls.avgQLat                     31514.88                       # Average queueing delay per DRAM burst
system.mem_ctrls.avgBusLat                    5000.00                       # Average bus latency per DRAM burst
system.mem_ctrls.avgMemAccLat                50264.88                       # Average memory access latency per DRAM burst
system.mem_ctrls.avgRdBW                       229.99                       # Average DRAM read bandwidth in MiByte/s
system.mem_ctrls.avgWrBW                        40.20                       # Average achieved write bandwidth in MiByte/s
system.mem_ctrls.avgRdBWSys                    230.32                       # Average system read bandwidth in MiByte/s
system.mem_ctrls.avgWrBWSys                     40.20                       # Average system write bandwidth in MiByte/s
system.mem_ctrls.peakBW                      12800.00                       # Theoretical peak bandwidth in MiByte/s
system.mem_ctrls.busUtil                         2.11                       # Data bus utilization in percentage
system.mem_ctrls.busUtilRead                     1.80                       # Data bus utilization in percentage for reads
system.mem_ctrls.busUtilWrite                    0.31                       # Data bus utilization in percentage for writes
system.mem_ctrls.avgRdQLen                       1.00                       # Average read queue length when enqueuing
system.mem_ctrls.avgWrQLen                      24.80                       # Average write queue length when enqueuing
system.mem_ctrls.readRowHits                  1339115                       # Number of row buffer hits during reads
system.mem_ctrls.writeRowHits                  548598                       # Number of row buffer hits during writes
system.mem_ctrls.readRowHitRate                 21.10                       # Row buffer hit rate for reads
system.mem_ctrls.writeRowHitRate                49.45                       # Row buffer hit rate for writes
system.mem_ctrls.avgGap                     236573.15                       # Average gap between requests
system.mem_ctrls.pageHitRate                    25.32                       # Row buffer hit rate, read and write combined
system.mem_ctrls_0.actEnergy              19758829020                       # Energy for activate commands per rank (pJ)
system.mem_ctrls_0.preEnergy              10502066685                       # Energy for precharge commands per rank (pJ)
system.mem_ctrls_0.readEnergy             22494420060                       # Energy for read commands per rank (pJ)
system.mem_ctrls_0.writeEnergy             2896844220                       # Energy for write commands per rank (pJ)
system.mem_ctrls_0.refreshEnergy         130797235920.000031                       # Energy for refresh commands per rank (pJ)
system.mem_ctrls_0.actBackEnergy          98764302420                       # Energy for active background per rank (pJ)
system.mem_ctrls_0.preBackEnergy           4365647520                       # Energy for precharge background per rank (pJ)
system.mem_ctrls_0.actPowerDownEnergy    501618642420                       # Energy for active power-down per rank (pJ)
system.mem_ctrls_0.prePowerDownEnergy     82590579840                       # Energy for precharge power-down per rank (pJ)
system.mem_ctrls_0.selfRefreshEnergy      62173766340                       # Energy for self refresh per rank (pJ)
system.mem_ctrls_0.totalEnergy           935976185385                       # Total energy per rank (pJ)
system.mem_ctrls_0.averagePower            530.002605                       # Core power per rank (mW)
system.mem_ctrls_0.totalIdleTime         1537990958000                       # Total Idle time Per DRAM Rank
system.mem_ctrls_0.memoryStateTime::IDLE   5373879000                       # Time in different power states
system.mem_ctrls_0.memoryStateTime::REF   55425488000                       # Time in different power states
system.mem_ctrls_0.memoryStateTime::SREF 222875422000                       # Time in different power states
system.mem_ctrls_0.memoryStateTime::PRE_PDN 215078892000                       # Time in different power states
system.mem_ctrls_0.memoryStateTime::ACT  167187920000                       # Time in different power states
system.mem_ctrls_0.memoryStateTime::ACT_PDN 1100042521500                       # Time in different power states
system.mem_ctrls_1.actEnergy              19996312560                       # Energy for activate commands per rank (pJ)
system.mem_ctrls_1.preEnergy              10628292180                       # Energy for precharge commands per rank (pJ)
system.mem_ctrls_1.readEnergy             22818290460                       # Energy for read commands per rank (pJ)
system.mem_ctrls_1.writeEnergy             2893921020                       # Energy for write commands per rank (pJ)
system.mem_ctrls_1.refreshEnergy         130845792480.000031                       # Energy for refresh commands per rank (pJ)
system.mem_ctrls_1.actBackEnergy          99357372030                       # Energy for active background per rank (pJ)
system.mem_ctrls_1.preBackEnergy           4490188320                       # Energy for precharge background per rank (pJ)
system.mem_ctrls_1.actPowerDownEnergy    500112155790                       # Energy for active power-down per rank (pJ)
system.mem_ctrls_1.prePowerDownEnergy     83003367360                       # Energy for precharge power-down per rank (pJ)
system.mem_ctrls_1.selfRefreshEnergy      62412455985                       # Energy for self refresh per rank (pJ)
system.mem_ctrls_1.totalEnergy           936575721495                       # Total energy per rank (pJ)
system.mem_ctrls_1.averagePower            530.342094                       # Core power per rank (mW)
system.mem_ctrls_1.totalIdleTime         1536359008750                       # Total Idle time Per DRAM Rank
system.mem_ctrls_1.memoryStateTime::IDLE   5379885750                       # Time in different power states
system.mem_ctrls_1.memoryStateTime::REF   55447156000                       # Time in different power states
system.mem_ctrls_1.memoryStateTime::SREF 223471100750                       # Time in different power states
system.mem_ctrls_1.memoryStateTime::PRE_PDN 216153814000                       # Time in different power states
system.mem_ctrls_1.memoryStateTime::ACT  168794317250                       # Time in different power states
system.mem_ctrls_1.memoryStateTime::ACT_PDN 1096737848750                       # Time in different power states
system.pwrStateResidencyTicks::UNDEFINED 1765984122500                       # Cumulative time (in ticks) in various power states
system.cpu_voltage_domain.voltage                   1                       # Voltage in Volts
system.cpu_clk_domain.clock                       500                       # Clock period in ticks
system.cpu.dtb.walker.pwrStateResidencyTicks::UNDEFINED 1765984122500                       # Cumulative time (in ticks) in various power states
system.cpu.apic_clk_domain.clock                 8000                       # Clock period in ticks
system.cpu.interrupts.pwrStateResidencyTicks::UNDEFINED 1765984122500                       # Cumulative time (in ticks) in various power states
system.cpu.itb.walker.pwrStateResidencyTicks::UNDEFINED 1765984122500                       # Cumulative time (in ticks) in various power states
system.cpu.workload.num_syscalls                  168                       # Number of system calls
system.cpu.pwrStateResidencyTicks::ON    1765984122500                       # Cumulative time (in ticks) in various power states
system.cpu.numCycles                       3531968245                       # number of cpu cycles simulated
system.cpu.numWorkItemsStarted                      0                       # number of work items this cpu started
system.cpu.numWorkItemsCompleted                    0                       # number of work items this cpu completed
system.cpu.committedInsts                   500000000                       # Number of instructions committed
system.cpu.committedOps                     876313784                       # Number of ops (including micro ops) committed
system.cpu.num_int_alu_accesses             872966681                       # Number of integer alu accesses
system.cpu.num_fp_alu_accesses                2882231                       # Number of float alu accesses
system.cpu.num_func_calls                    11025254                       # number of times a function call or return occured
system.cpu.num_conditional_control_insts     75981009                       # number of instructions that are conditional controls
system.cpu.num_int_insts                    872966681                       # number of integer instructions
system.cpu.num_fp_insts                       2882231                       # number of float instructions
system.cpu.num_int_register_reads          1835046955                       # number of times the integer registers were read
system.cpu.num_int_register_writes          703076420                       # number of times the integer registers were written
system.cpu.num_fp_register_reads              4386063                       # number of times the floating registers were read
system.cpu.num_fp_register_writes             2464405                       # number of times the floating registers were written
system.cpu.num_cc_register_reads            441654669                       # number of times the CC registers were read
system.cpu.num_cc_register_writes           253505516                       # number of times the CC registers were written
system.cpu.num_mem_refs                     293763597                       # number of memory refs
system.cpu.num_load_insts                   221285041                       # Number of load instructions
system.cpu.num_store_insts                   72478556                       # Number of store instructions
system.cpu.num_idle_cycles                          0                       # Number of idle cycles
system.cpu.num_busy_cycles                 3531968245                       # Number of busy cycles
system.cpu.not_idle_fraction                        1                       # Percentage of non-idle cycles
system.cpu.idle_fraction                            0                       # Percentage of idle cycles
system.cpu.Branches                          97901001                       # Number of branches fetched
system.cpu.op_class::No_OpClass                939429      0.11%      0.11% # Class of executed instruction
system.cpu.op_class::IntAlu                 578420257     66.01%     66.11% # Class of executed instruction
system.cpu.op_class::IntMult                   907073      0.10%     66.22% # Class of executed instruction
system.cpu.op_class::IntDiv                        42      0.00%     66.22% # Class of executed instruction
system.cpu.op_class::FloatAdd                 2283386      0.26%     66.48% # Class of executed instruction
system.cpu.op_class::FloatCmp                       0      0.00%     66.48% # Class of executed instruction
system.cpu.op_class::FloatCvt                       0      0.00%     66.48% # Class of executed instruction
system.cpu.op_class::FloatMult                      0      0.00%     66.48% # Class of executed instruction
system.cpu.op_class::FloatDiv                       0      0.00%     66.48% # Class of executed instruction
system.cpu.op_class::FloatSqrt                      0      0.00%     66.48% # Class of executed instruction
system.cpu.op_class::SimdAdd                        0      0.00%     66.48% # Class of executed instruction
system.cpu.op_class::SimdAddAcc                     0      0.00%     66.48% # Class of executed instruction
system.cpu.op_class::SimdAlu                        0      0.00%     66.48% # Class of executed instruction
system.cpu.op_class::SimdCmp                        0      0.00%     66.48% # Class of executed instruction
system.cpu.op_class::SimdCvt                        0      0.00%     66.48% # Class of executed instruction
system.cpu.op_class::SimdMisc                       0      0.00%     66.48% # Class of executed instruction
system.cpu.op_class::SimdMult                       0      0.00%     66.48% # Class of executed instruction
system.cpu.op_class::SimdMultAcc                    0      0.00%     66.48% # Class of executed instruction
system.cpu.op_class::SimdShift                      0      0.00%     66.48% # Class of executed instruction
system.cpu.op_class::SimdShiftAcc                   0      0.00%     66.48% # Class of executed instruction
system.cpu.op_class::SimdSqrt                       0      0.00%     66.48% # Class of executed instruction
system.cpu.op_class::SimdFloatAdd                   0      0.00%     66.48% # Class of executed instruction
system.cpu.op_class::SimdFloatAlu                   0      0.00%     66.48% # Class of executed instruction
system.cpu.op_class::SimdFloatCmp                   0      0.00%     66.48% # Class of executed instruction
system.cpu.op_class::SimdFloatCvt                   0      0.00%     66.48% # Class of executed instruction
system.cpu.op_class::SimdFloatDiv                   0      0.00%     66.48% # Class of executed instruction
system.cpu.op_class::SimdFloatMisc                  0      0.00%     66.48% # Class of executed instruction
system.cpu.op_class::SimdFloatMult                  0      0.00%     66.48% # Class of executed instruction
system.cpu.op_class::SimdFloatMultAcc               0      0.00%     66.48% # Class of executed instruction
system.cpu.op_class::SimdFloatSqrt                  0      0.00%     66.48% # Class of executed instruction
system.cpu.op_class::MemRead                221285041     25.25%     91.73% # Class of executed instruction
system.cpu.op_class::MemWrite                72478556      8.27%    100.00% # Class of executed instruction
system.cpu.op_class::IprAccess                      0      0.00%    100.00% # Class of executed instruction
system.cpu.op_class::InstPrefetch                   0      0.00%    100.00% # Class of executed instruction
system.cpu.op_class::total                  876313784                       # Class of executed instruction
system.cpu.dcache.tags.pwrStateResidencyTicks::UNDEFINED 1765984122500                       # Cumulative time (in ticks) in various power states
system.cpu.dcache.tags.replacements          14840805                       # number of replacements
system.cpu.dcache.tags.tagsinuse           511.943466                       # Cycle average of tags in use
system.cpu.dcache.tags.total_refs           278936408                       # Total number of references to valid blocks.
system.cpu.dcache.tags.sampled_refs          14841317                       # Sample count of references to valid blocks.
system.cpu.dcache.tags.avg_refs             18.794586                       # Average number of references to valid blocks.
system.cpu.dcache.tags.warmup_cycle         741805500                       # Cycle when the warmup percentage was hit.
system.cpu.dcache.tags.occ_blocks::cpu.data   511.943466                       # Average occupied blocks per requestor
system.cpu.dcache.tags.occ_percent::cpu.data     0.999890                       # Average percentage of cache occupancy
system.cpu.dcache.tags.occ_percent::total     0.999890                       # Average percentage of cache occupancy
system.cpu.dcache.tags.occ_task_id_blocks::1024          512                       # Occupied blocks per task id
system.cpu.dcache.tags.age_task_id_blocks_1024::0            6                       # Occupied blocks per task id
system.cpu.dcache.tags.age_task_id_blocks_1024::1          429                       # Occupied blocks per task id
system.cpu.dcache.tags.age_task_id_blocks_1024::2           75                       # Occupied blocks per task id
system.cpu.dcache.tags.age_task_id_blocks_1024::3            2                       # Occupied blocks per task id
system.cpu.dcache.tags.occ_task_id_percent::1024            1                       # Percentage of cache occupancy per task id
system.cpu.dcache.tags.tag_accesses         602396767                       # Number of tag accesses
system.cpu.dcache.tags.data_accesses        602396767                       # Number of data accesses
system.cpu.dcache.pwrStateResidencyTicks::UNDEFINED 1765984122500                       # Cumulative time (in ticks) in various power states
system.cpu.dcache.ReadReq_hits::cpu.data    207240000                       # number of ReadReq hits
system.cpu.dcache.ReadReq_hits::total       207240000                       # number of ReadReq hits
system.cpu.dcache.WriteReq_hits::cpu.data     71696408                       # number of WriteReq hits
system.cpu.dcache.WriteReq_hits::total       71696408                       # number of WriteReq hits
system.cpu.dcache.demand_hits::cpu.data     278936408                       # number of demand (read+write) hits
system.cpu.dcache.demand_hits::total        278936408                       # number of demand (read+write) hits
system.cpu.dcache.overall_hits::cpu.data    278936408                       # number of overall hits
system.cpu.dcache.overall_hits::total       278936408                       # number of overall hits
system.cpu.dcache.ReadReq_misses::cpu.data     14059168                       # number of ReadReq misses
system.cpu.dcache.ReadReq_misses::total      14059168                       # number of ReadReq misses
system.cpu.dcache.WriteReq_misses::cpu.data       782149                       # number of WriteReq misses
system.cpu.dcache.WriteReq_misses::total       782149                       # number of WriteReq misses
system.cpu.dcache.demand_misses::cpu.data     14841317                       # number of demand (read+write) misses
system.cpu.dcache.demand_misses::total       14841317                       # number of demand (read+write) misses
system.cpu.dcache.overall_misses::cpu.data     14841317                       # number of overall misses
system.cpu.dcache.overall_misses::total      14841317                       # number of overall misses
system.cpu.dcache.ReadReq_miss_latency::cpu.data 741428434500                       # number of ReadReq miss cycles
system.cpu.dcache.ReadReq_miss_latency::total 741428434500                       # number of ReadReq miss cycles
system.cpu.dcache.WriteReq_miss_latency::cpu.data  28236109000                       # number of WriteReq miss cycles
system.cpu.dcache.WriteReq_miss_latency::total  28236109000                       # number of WriteReq miss cycles
system.cpu.dcache.demand_miss_latency::cpu.data 769664543500                       # number of demand (read+write) miss cycles
system.cpu.dcache.demand_miss_latency::total 769664543500                       # number of demand (read+write) miss cycles
system.cpu.dcache.overall_miss_latency::cpu.data 769664543500                       # number of overall miss cycles
system.cpu.dcache.overall_miss_latency::total 769664543500                       # number of overall miss cycles
system.cpu.dcache.ReadReq_accesses::cpu.data    221299168                       # number of ReadReq accesses(hits+misses)
system.cpu.dcache.ReadReq_accesses::total    221299168                       # number of ReadReq accesses(hits+misses)
system.cpu.dcache.WriteReq_accesses::cpu.data     72478557                       # number of WriteReq accesses(hits+misses)
system.cpu.dcache.WriteReq_accesses::total     72478557                       # number of WriteReq accesses(hits+misses)
system.cpu.dcache.demand_accesses::cpu.data    293777725                       # number of demand (read+write) accesses
system.cpu.dcache.demand_accesses::total    293777725                       # number of demand (read+write) accesses
system.cpu.dcache.overall_accesses::cpu.data    293777725                       # number of overall (read+write) accesses
system.cpu.dcache.overall_accesses::total    293777725                       # number of overall (read+write) accesses
system.cpu.dcache.ReadReq_miss_rate::cpu.data     0.063530                       # miss rate for ReadReq accesses
system.cpu.dcache.ReadReq_miss_rate::total     0.063530                       # miss rate for ReadReq accesses
system.cpu.dcache.WriteReq_miss_rate::cpu.data     0.010791                       # miss rate for WriteReq accesses
system.cpu.dcache.WriteReq_miss_rate::total     0.010791                       # miss rate for WriteReq accesses
system.cpu.dcache.demand_miss_rate::cpu.data     0.050519                       # miss rate for demand accesses
system.cpu.dcache.demand_miss_rate::total     0.050519                       # miss rate for demand accesses
system.cpu.dcache.overall_miss_rate::cpu.data     0.050519                       # miss rate for overall accesses
system.cpu.dcache.overall_miss_rate::total     0.050519                       # miss rate for overall accesses
system.cpu.dcache.ReadReq_avg_miss_latency::cpu.data 52736.295242                       # average ReadReq miss latency
system.cpu.dcache.ReadReq_avg_miss_latency::total 52736.295242                       # average ReadReq miss latency
system.cpu.dcache.WriteReq_avg_miss_latency::cpu.data 36100.677748                       # average WriteReq miss latency
system.cpu.dcache.WriteReq_avg_miss_latency::total 36100.677748                       # average WriteReq miss latency
system.cpu.dcache.demand_avg_miss_latency::cpu.data 51859.585204                       # average overall miss latency
system.cpu.dcache.demand_avg_miss_latency::total 51859.585204                       # average overall miss latency
system.cpu.dcache.overall_avg_miss_latency::cpu.data 51859.585204                       # average overall miss latency
system.cpu.dcache.overall_avg_miss_latency::total 51859.585204                       # average overall miss latency
system.cpu.dcache.blocked_cycles::no_mshrs            0                       # number of cycles access was blocked
system.cpu.dcache.blocked_cycles::no_targets            0                       # number of cycles access was blocked
system.cpu.dcache.blocked::no_mshrs                 0                       # number of cycles access was blocked
system.cpu.dcache.blocked::no_targets               0                       # number of cycles access was blocked
system.cpu.dcache.avg_blocked_cycles::no_mshrs          nan                       # average number of cycles each access was blocked
system.cpu.dcache.avg_blocked_cycles::no_targets          nan                       # average number of cycles each access was blocked
system.cpu.dcache.writebacks::writebacks      4733257                       # number of writebacks
system.cpu.dcache.writebacks::total           4733257                       # number of writebacks
system.cpu.dcache.ReadReq_mshr_misses::cpu.data     14059168                       # number of ReadReq MSHR misses
system.cpu.dcache.ReadReq_mshr_misses::total     14059168                       # number of ReadReq MSHR misses
system.cpu.dcache.WriteReq_mshr_misses::cpu.data       782149                       # number of WriteReq MSHR misses
system.cpu.dcache.WriteReq_mshr_misses::total       782149                       # number of WriteReq MSHR misses
system.cpu.dcache.demand_mshr_misses::cpu.data     14841317                       # number of demand (read+write) MSHR misses
system.cpu.dcache.demand_mshr_misses::total     14841317                       # number of demand (read+write) MSHR misses
system.cpu.dcache.overall_mshr_misses::cpu.data     14841317                       # number of overall MSHR misses
system.cpu.dcache.overall_mshr_misses::total     14841317                       # number of overall MSHR misses
system.cpu.dcache.ReadReq_mshr_miss_latency::cpu.data 727369266500                       # number of ReadReq MSHR miss cycles
system.cpu.dcache.ReadReq_mshr_miss_latency::total 727369266500                       # number of ReadReq MSHR miss cycles
system.cpu.dcache.WriteReq_mshr_miss_latency::cpu.data  27453960000                       # number of WriteReq MSHR miss cycles
system.cpu.dcache.WriteReq_mshr_miss_latency::total  27453960000                       # number of WriteReq MSHR miss cycles
system.cpu.dcache.demand_mshr_miss_latency::cpu.data 754823226500                       # number of demand (read+write) MSHR miss cycles
system.cpu.dcache.demand_mshr_miss_latency::total 754823226500                       # number of demand (read+write) MSHR miss cycles
system.cpu.dcache.overall_mshr_miss_latency::cpu.data 754823226500                       # number of overall MSHR miss cycles
system.cpu.dcache.overall_mshr_miss_latency::total 754823226500                       # number of overall MSHR miss cycles
system.cpu.dcache.ReadReq_mshr_miss_rate::cpu.data     0.063530                       # mshr miss rate for ReadReq accesses
system.cpu.dcache.ReadReq_mshr_miss_rate::total     0.063530                       # mshr miss rate for ReadReq accesses
system.cpu.dcache.WriteReq_mshr_miss_rate::cpu.data     0.010791                       # mshr miss rate for WriteReq accesses
system.cpu.dcache.WriteReq_mshr_miss_rate::total     0.010791                       # mshr miss rate for WriteReq accesses
system.cpu.dcache.demand_mshr_miss_rate::cpu.data     0.050519                       # mshr miss rate for demand accesses
system.cpu.dcache.demand_mshr_miss_rate::total     0.050519                       # mshr miss rate for demand accesses
system.cpu.dcache.overall_mshr_miss_rate::cpu.data     0.050519                       # mshr miss rate for overall accesses
system.cpu.dcache.overall_mshr_miss_rate::total     0.050519                       # mshr miss rate for overall accesses
system.cpu.dcache.ReadReq_avg_mshr_miss_latency::cpu.data 51736.295242                       # average ReadReq mshr miss latency
system.cpu.dcache.ReadReq_avg_mshr_miss_latency::total 51736.295242                       # average ReadReq mshr miss latency
system.cpu.dcache.WriteReq_avg_mshr_miss_latency::cpu.data 35100.677748                       # average WriteReq mshr miss latency
system.cpu.dcache.WriteReq_avg_mshr_miss_latency::total 35100.677748                       # average WriteReq mshr miss latency
system.cpu.dcache.demand_avg_mshr_miss_latency::cpu.data 50859.585204                       # average overall mshr miss latency
system.cpu.dcache.demand_avg_mshr_miss_latency::total 50859.585204                       # average overall mshr miss latency
system.cpu.dcache.overall_avg_mshr_miss_latency::cpu.data 50859.585204                       # average overall mshr miss latency
system.cpu.dcache.overall_avg_mshr_miss_latency::total 50859.585204                       # average overall mshr miss latency
system.cpu.dtb_walker_cache.tags.pwrStateResidencyTicks::UNDEFINED 1765984122500                       # Cumulative time (in ticks) in various power states
system.cpu.dtb_walker_cache.tags.replacements            0                       # number of replacements
system.cpu.dtb_walker_cache.tags.tagsinuse            0                       # Cycle average of tags in use
system.cpu.dtb_walker_cache.tags.total_refs            0                       # Total number of references to valid blocks.
system.cpu.dtb_walker_cache.tags.sampled_refs            0                       # Sample count of references to valid blocks.
system.cpu.dtb_walker_cache.tags.avg_refs          nan                       # Average number of references to valid blocks.
system.cpu.dtb_walker_cache.tags.warmup_cycle            0                       # Cycle when the warmup percentage was hit.
system.cpu.dtb_walker_cache.tags.tag_accesses            0                       # Number of tag accesses
system.cpu.dtb_walker_cache.tags.data_accesses            0                       # Number of data accesses
system.cpu.dtb_walker_cache.pwrStateResidencyTicks::UNDEFINED 1765984122500                       # Cumulative time (in ticks) in various power states
system.cpu.dtb_walker_cache.blocked_cycles::no_mshrs            0                       # number of cycles access was blocked
system.cpu.dtb_walker_cache.blocked_cycles::no_targets            0                       # number of cycles access was blocked
system.cpu.dtb_walker_cache.blocked::no_mshrs            0                       # number of cycles access was blocked
system.cpu.dtb_walker_cache.blocked::no_targets            0                       # number of cycles access was blocked
system.cpu.dtb_walker_cache.avg_blocked_cycles::no_mshrs          nan                       # average number of cycles each access was blocked
system.cpu.dtb_walker_cache.avg_blocked_cycles::no_targets          nan                       # average number of cycles each access was blocked
system.cpu.icache.tags.pwrStateResidencyTicks::UNDEFINED 1765984122500                       # Cumulative time (in ticks) in various power states
system.cpu.icache.tags.replacements           3333912                       # number of replacements
system.cpu.icache.tags.tagsinuse           127.998857                       # Cycle average of tags in use
system.cpu.icache.tags.total_refs           673983903                       # Total number of references to valid blocks.
system.cpu.icache.tags.sampled_refs           3334040                       # Sample count of references to valid blocks.
system.cpu.icache.tags.avg_refs            202.152315                       # Average number of references to valid blocks.
system.cpu.icache.tags.warmup_cycle          67574500                       # Cycle when the warmup percentage was hit.
system.cpu.icache.tags.occ_blocks::cpu.inst   127.998857                       # Average occupied blocks per requestor
system.cpu.icache.tags.occ_percent::cpu.inst     0.999991                       # Average percentage of cache occupancy
system.cpu.icache.tags.occ_percent::total     0.999991                       # Average percentage of cache occupancy
system.cpu.icache.tags.occ_task_id_blocks::1024          128                       # Occupied blocks per task id
system.cpu.icache.tags.age_task_id_blocks_1024::4          128                       # Occupied blocks per task id
system.cpu.icache.tags.occ_task_id_percent::1024            1                       # Percentage of cache occupancy per task id
system.cpu.icache.tags.tag_accesses        1357969926                       # Number of tag accesses
system.cpu.icache.tags.data_accesses       1357969926                       # Number of data accesses
system.cpu.icache.pwrStateResidencyTicks::UNDEFINED 1765984122500                       # Cumulative time (in ticks) in various power states
system.cpu.icache.ReadReq_hits::cpu.inst    673983903                       # number of ReadReq hits
system.cpu.icache.ReadReq_hits::total       673983903                       # number of ReadReq hits
system.cpu.icache.demand_hits::cpu.inst     673983903                       # number of demand (read+write) hits
system.cpu.icache.demand_hits::total        673983903                       # number of demand (read+write) hits
system.cpu.icache.overall_hits::cpu.inst    673983903                       # number of overall hits
system.cpu.icache.overall_hits::total       673983903                       # number of overall hits
system.cpu.icache.ReadReq_misses::cpu.inst      3334040                       # number of ReadReq misses
system.cpu.icache.ReadReq_misses::total       3334040                       # number of ReadReq misses
system.cpu.icache.demand_misses::cpu.inst      3334040                       # number of demand (read+write) misses
system.cpu.icache.demand_misses::total        3334040                       # number of demand (read+write) misses
system.cpu.icache.overall_misses::cpu.inst      3334040                       # number of overall misses
system.cpu.icache.overall_misses::total       3334040                       # number of overall misses
system.cpu.icache.ReadReq_miss_latency::cpu.inst  43406334500                       # number of ReadReq miss cycles
system.cpu.icache.ReadReq_miss_latency::total  43406334500                       # number of ReadReq miss cycles
system.cpu.icache.demand_miss_latency::cpu.inst  43406334500                       # number of demand (read+write) miss cycles
system.cpu.icache.demand_miss_latency::total  43406334500                       # number of demand (read+write) miss cycles
system.cpu.icache.overall_miss_latency::cpu.inst  43406334500                       # number of overall miss cycles
system.cpu.icache.overall_miss_latency::total  43406334500                       # number of overall miss cycles
system.cpu.icache.ReadReq_accesses::cpu.inst    677317943                       # number of ReadReq accesses(hits+misses)
system.cpu.icache.ReadReq_accesses::total    677317943                       # number of ReadReq accesses(hits+misses)
system.cpu.icache.demand_accesses::cpu.inst    677317943                       # number of demand (read+write) accesses
system.cpu.icache.demand_accesses::total    677317943                       # number of demand (read+write) accesses
system.cpu.icache.overall_accesses::cpu.inst    677317943                       # number of overall (read+write) accesses
system.cpu.icache.overall_accesses::total    677317943                       # number of overall (read+write) accesses
system.cpu.icache.ReadReq_miss_rate::cpu.inst     0.004922                       # miss rate for ReadReq accesses
system.cpu.icache.ReadReq_miss_rate::total     0.004922                       # miss rate for ReadReq accesses
system.cpu.icache.demand_miss_rate::cpu.inst     0.004922                       # miss rate for demand accesses
system.cpu.icache.demand_miss_rate::total     0.004922                       # miss rate for demand accesses
system.cpu.icache.overall_miss_rate::cpu.inst     0.004922                       # miss rate for overall accesses
system.cpu.icache.overall_miss_rate::total     0.004922                       # miss rate for overall accesses
system.cpu.icache.ReadReq_avg_miss_latency::cpu.inst 13019.140292                       # average ReadReq miss latency
system.cpu.icache.ReadReq_avg_miss_latency::total 13019.140292                       # average ReadReq miss latency
system.cpu.icache.demand_avg_miss_latency::cpu.inst 13019.140292                       # average overall miss latency
system.cpu.icache.demand_avg_miss_latency::total 13019.140292                       # average overall miss latency
system.cpu.icache.overall_avg_miss_latency::cpu.inst 13019.140292                       # average overall miss latency
system.cpu.icache.overall_avg_miss_latency::total 13019.140292                       # average overall miss latency
system.cpu.icache.blocked_cycles::no_mshrs            0                       # number of cycles access was blocked
system.cpu.icache.blocked_cycles::no_targets            0                       # number of cycles access was blocked
system.cpu.icache.blocked::no_mshrs                 0                       # number of cycles access was blocked
system.cpu.icache.blocked::no_targets               0                       # number of cycles access was blocked
system.cpu.icache.avg_blocked_cycles::no_mshrs          nan                       # average number of cycles each access was blocked
system.cpu.icache.avg_blocked_cycles::no_targets          nan                       # average number of cycles each access was blocked
system.cpu.icache.writebacks::writebacks      3333912                       # number of writebacks
system.cpu.icache.writebacks::total           3333912                       # number of writebacks
system.cpu.icache.ReadReq_mshr_misses::cpu.inst      3334040                       # number of ReadReq MSHR misses
system.cpu.icache.ReadReq_mshr_misses::total      3334040                       # number of ReadReq MSHR misses
system.cpu.icache.demand_mshr_misses::cpu.inst      3334040                       # number of demand (read+write) MSHR misses
system.cpu.icache.demand_mshr_misses::total      3334040                       # number of demand (read+write) MSHR misses
system.cpu.icache.overall_mshr_misses::cpu.inst      3334040                       # number of overall MSHR misses
system.cpu.icache.overall_mshr_misses::total      3334040                       # number of overall MSHR misses
system.cpu.icache.ReadReq_mshr_miss_latency::cpu.inst  40072294500                       # number of ReadReq MSHR miss cycles
system.cpu.icache.ReadReq_mshr_miss_latency::total  40072294500                       # number of ReadReq MSHR miss cycles
system.cpu.icache.demand_mshr_miss_latency::cpu.inst  40072294500                       # number of demand (read+write) MSHR miss cycles
system.cpu.icache.demand_mshr_miss_latency::total  40072294500                       # number of demand (read+write) MSHR miss cycles
system.cpu.icache.overall_mshr_miss_latency::cpu.inst  40072294500                       # number of overall MSHR miss cycles
system.cpu.icache.overall_mshr_miss_latency::total  40072294500                       # number of overall MSHR miss cycles
system.cpu.icache.ReadReq_mshr_miss_rate::cpu.inst     0.004922                       # mshr miss rate for ReadReq accesses
system.cpu.icache.ReadReq_mshr_miss_rate::total     0.004922                       # mshr miss rate for ReadReq accesses
system.cpu.icache.demand_mshr_miss_rate::cpu.inst     0.004922                       # mshr miss rate for demand accesses
system.cpu.icache.demand_mshr_miss_rate::total     0.004922                       # mshr miss rate for demand accesses
system.cpu.icache.overall_mshr_miss_rate::cpu.inst     0.004922                       # mshr miss rate for overall accesses
system.cpu.icache.overall_mshr_miss_rate::total     0.004922                       # mshr miss rate for overall accesses
system.cpu.icache.ReadReq_avg_mshr_miss_latency::cpu.inst 12019.140292                       # average ReadReq mshr miss latency
system.cpu.icache.ReadReq_avg_mshr_miss_latency::total 12019.140292                       # average ReadReq mshr miss latency
system.cpu.icache.demand_avg_mshr_miss_latency::cpu.inst 12019.140292                       # average overall mshr miss latency
system.cpu.icache.demand_avg_mshr_miss_latency::total 12019.140292                       # average overall mshr miss latency
system.cpu.icache.overall_avg_mshr_miss_latency::cpu.inst 12019.140292                       # average overall mshr miss latency
system.cpu.icache.overall_avg_mshr_miss_latency::total 12019.140292                       # average overall mshr miss latency
system.cpu.itb_walker_cache.tags.pwrStateResidencyTicks::UNDEFINED 1765984122500                       # Cumulative time (in ticks) in various power states
system.cpu.itb_walker_cache.tags.replacements            0                       # number of replacements
system.cpu.itb_walker_cache.tags.tagsinuse            0                       # Cycle average of tags in use
system.cpu.itb_walker_cache.tags.total_refs            0                       # Total number of references to valid blocks.
system.cpu.itb_walker_cache.tags.sampled_refs            0                       # Sample count of references to valid blocks.
system.cpu.itb_walker_cache.tags.avg_refs          nan                       # Average number of references to valid blocks.
system.cpu.itb_walker_cache.tags.warmup_cycle            0                       # Cycle when the warmup percentage was hit.
system.cpu.itb_walker_cache.tags.tag_accesses            0                       # Number of tag accesses
system.cpu.itb_walker_cache.tags.data_accesses            0                       # Number of data accesses
system.cpu.itb_walker_cache.pwrStateResidencyTicks::UNDEFINED 1765984122500                       # Cumulative time (in ticks) in various power states
system.cpu.itb_walker_cache.blocked_cycles::no_mshrs            0                       # number of cycles access was blocked
system.cpu.itb_walker_cache.blocked_cycles::no_targets            0                       # number of cycles access was blocked
system.cpu.itb_walker_cache.blocked::no_mshrs            0                       # number of cycles access was blocked
system.cpu.itb_walker_cache.blocked::no_targets            0                       # number of cycles access was blocked
system.cpu.itb_walker_cache.avg_blocked_cycles::no_mshrs          nan                       # average number of cycles each access was blocked
system.cpu.itb_walker_cache.avg_blocked_cycles::no_targets          nan                       # average number of cycles each access was blocked
system.l2.tags.pwrStateResidencyTicks::UNDEFINED 1765984122500                       # Cumulative time (in ticks) in various power states
system.l2.tags.replacements                   6346852                       # number of replacements
system.l2.tags.tagsinuse                 16327.603792                       # Cycle average of tags in use
system.l2.tags.total_refs                    29973419                       # Total number of references to valid blocks.
system.l2.tags.sampled_refs                   6363236                       # Sample count of references to valid blocks.
system.l2.tags.avg_refs                      4.710405                       # Average number of references to valid blocks.
system.l2.tags.warmup_cycle               14179807000                       # Cycle when the warmup percentage was hit.
system.l2.tags.occ_blocks::writebacks       30.943003                       # Average occupied blocks per requestor
system.l2.tags.occ_blocks::cpu.inst         12.315300                       # Average occupied blocks per requestor
system.l2.tags.occ_blocks::cpu.data      16284.345489                       # Average occupied blocks per requestor
system.l2.tags.occ_percent::writebacks       0.001889                       # Average percentage of cache occupancy
system.l2.tags.occ_percent::cpu.inst         0.000752                       # Average percentage of cache occupancy
system.l2.tags.occ_percent::cpu.data         0.993918                       # Average percentage of cache occupancy
system.l2.tags.occ_percent::total            0.996558                       # Average percentage of cache occupancy
system.l2.tags.occ_task_id_blocks::1024         16384                       # Occupied blocks per task id
system.l2.tags.age_task_id_blocks_1024::1          371                       # Occupied blocks per task id
system.l2.tags.age_task_id_blocks_1024::2         3234                       # Occupied blocks per task id
system.l2.tags.age_task_id_blocks_1024::3         9215                       # Occupied blocks per task id
system.l2.tags.age_task_id_blocks_1024::4         3564                       # Occupied blocks per task id
system.l2.tags.occ_task_id_percent::1024            1                       # Percentage of cache occupancy per task id
system.l2.tags.tag_accesses                  79063382                       # Number of tag accesses
system.l2.tags.data_accesses                 79063382                       # Number of data accesses
system.l2.pwrStateResidencyTicks::UNDEFINED 1765984122500                       # Cumulative time (in ticks) in various power states
system.l2.WritebackDirty_hits::writebacks      4733257                       # number of WritebackDirty hits
system.l2.WritebackDirty_hits::total          4733257                       # number of WritebackDirty hits
system.l2.WritebackClean_hits::writebacks      3333911                       # number of WritebackClean hits
system.l2.WritebackClean_hits::total          3333911                       # number of WritebackClean hits
system.l2.ReadExReq_hits::cpu.data             572847                       # number of ReadExReq hits
system.l2.ReadExReq_hits::total                572847                       # number of ReadExReq hits
system.l2.ReadCleanReq_hits::cpu.inst         3333302                       # number of ReadCleanReq hits
system.l2.ReadCleanReq_hits::total            3333302                       # number of ReadCleanReq hits
system.l2.ReadSharedReq_hits::cpu.data        7913811                       # number of ReadSharedReq hits
system.l2.ReadSharedReq_hits::total           7913811                       # number of ReadSharedReq hits
system.l2.demand_hits::cpu.inst               3333302                       # number of demand (read+write) hits
system.l2.demand_hits::cpu.data               8486658                       # number of demand (read+write) hits
system.l2.demand_hits::total                 11819960                       # number of demand (read+write) hits
system.l2.overall_hits::cpu.inst              3333302                       # number of overall hits
system.l2.overall_hits::cpu.data              8486658                       # number of overall hits
system.l2.overall_hits::total                11819960                       # number of overall hits
system.l2.ReadExReq_misses::cpu.data           209302                       # number of ReadExReq misses
system.l2.ReadExReq_misses::total              209302                       # number of ReadExReq misses
system.l2.ReadCleanReq_misses::cpu.inst           738                       # number of ReadCleanReq misses
system.l2.ReadCleanReq_misses::total              738                       # number of ReadCleanReq misses
system.l2.ReadSharedReq_misses::cpu.data      6145357                       # number of ReadSharedReq misses
system.l2.ReadSharedReq_misses::total         6145357                       # number of ReadSharedReq misses
system.l2.demand_misses::cpu.inst                 738                       # number of demand (read+write) misses
system.l2.demand_misses::cpu.data             6354659                       # number of demand (read+write) misses
system.l2.demand_misses::total                6355397                       # number of demand (read+write) misses
system.l2.overall_misses::cpu.inst                738                       # number of overall misses
system.l2.overall_misses::cpu.data            6354659                       # number of overall misses
system.l2.overall_misses::total               6355397                       # number of overall misses
system.l2.ReadExReq_miss_latency::cpu.data  20262847000                       # number of ReadExReq miss cycles
system.l2.ReadExReq_miss_latency::total   20262847000                       # number of ReadExReq miss cycles
system.l2.ReadCleanReq_miss_latency::cpu.inst     68486000                       # number of ReadCleanReq miss cycles
system.l2.ReadCleanReq_miss_latency::total     68486000                       # number of ReadCleanReq miss cycles
system.l2.ReadSharedReq_miss_latency::cpu.data 623177264000                       # number of ReadSharedReq miss cycles
system.l2.ReadSharedReq_miss_latency::total 623177264000                       # number of ReadSharedReq miss cycles
system.l2.demand_miss_latency::cpu.inst      68486000                       # number of demand (read+write) miss cycles
system.l2.demand_miss_latency::cpu.data  643440111000                       # number of demand (read+write) miss cycles
system.l2.demand_miss_latency::total     643508597000                       # number of demand (read+write) miss cycles
system.l2.overall_miss_latency::cpu.inst     68486000                       # number of overall miss cycles
system.l2.overall_miss_latency::cpu.data 643440111000                       # number of overall miss cycles
system.l2.overall_miss_latency::total    643508597000                       # number of overall miss cycles
system.l2.WritebackDirty_accesses::writebacks      4733257                       # number of WritebackDirty accesses(hits+misses)
system.l2.WritebackDirty_accesses::total      4733257                       # number of WritebackDirty accesses(hits+misses)
system.l2.WritebackClean_accesses::writebacks      3333911                       # number of WritebackClean accesses(hits+misses)
system.l2.WritebackClean_accesses::total      3333911                       # number of WritebackClean accesses(hits+misses)
system.l2.ReadExReq_accesses::cpu.data         782149                       # number of ReadExReq accesses(hits+misses)
system.l2.ReadExReq_accesses::total            782149                       # number of ReadExReq accesses(hits+misses)
system.l2.ReadCleanReq_accesses::cpu.inst      3334040                       # number of ReadCleanReq accesses(hits+misses)
system.l2.ReadCleanReq_accesses::total        3334040                       # number of ReadCleanReq accesses(hits+misses)
system.l2.ReadSharedReq_accesses::cpu.data     14059168                       # number of ReadSharedReq accesses(hits+misses)
system.l2.ReadSharedReq_accesses::total      14059168                       # number of ReadSharedReq accesses(hits+misses)
system.l2.demand_accesses::cpu.inst           3334040                       # number of demand (read+write) accesses
system.l2.demand_accesses::cpu.data          14841317                       # number of demand (read+write) accesses
system.l2.demand_accesses::total             18175357                       # number of demand (read+write) accesses
system.l2.overall_accesses::cpu.inst          3334040                       # number of overall (read+write) accesses
system.l2.overall_accesses::cpu.data         14841317                       # number of overall (read+write) accesses
system.l2.overall_accesses::total            18175357                       # number of overall (read+write) accesses
system.l2.ReadExReq_miss_rate::cpu.data      0.267599                       # miss rate for ReadExReq accesses
system.l2.ReadExReq_miss_rate::total         0.267599                       # miss rate for ReadExReq accesses
system.l2.ReadCleanReq_miss_rate::cpu.inst     0.000221                       # miss rate for ReadCleanReq accesses
system.l2.ReadCleanReq_miss_rate::total      0.000221                       # miss rate for ReadCleanReq accesses
system.l2.ReadSharedReq_miss_rate::cpu.data     0.437107                       # miss rate for ReadSharedReq accesses
system.l2.ReadSharedReq_miss_rate::total     0.437107                       # miss rate for ReadSharedReq accesses
system.l2.demand_miss_rate::cpu.inst         0.000221                       # miss rate for demand accesses
system.l2.demand_miss_rate::cpu.data         0.428174                       # miss rate for demand accesses
system.l2.demand_miss_rate::total            0.349671                       # miss rate for demand accesses
system.l2.overall_miss_rate::cpu.inst        0.000221                       # miss rate for overall accesses
system.l2.overall_miss_rate::cpu.data        0.428174                       # miss rate for overall accesses
system.l2.overall_miss_rate::total           0.349671                       # miss rate for overall accesses
system.l2.ReadExReq_avg_miss_latency::cpu.data 96811.530707                       # average ReadExReq miss latency
system.l2.ReadExReq_avg_miss_latency::total 96811.530707                       # average ReadExReq miss latency
system.l2.ReadCleanReq_avg_miss_latency::cpu.inst 92799.457995                       # average ReadCleanReq miss latency
system.l2.ReadCleanReq_avg_miss_latency::total 92799.457995                       # average ReadCleanReq miss latency
system.l2.ReadSharedReq_avg_miss_latency::cpu.data 101406.193977                       # average ReadSharedReq miss latency
system.l2.ReadSharedReq_avg_miss_latency::total 101406.193977                       # average ReadSharedReq miss latency
system.l2.demand_avg_miss_latency::cpu.inst 92799.457995                       # average overall miss latency
system.l2.demand_avg_miss_latency::cpu.data 101254.860568                       # average overall miss latency
system.l2.demand_avg_miss_latency::total 101253.878711                       # average overall miss latency
system.l2.overall_avg_miss_latency::cpu.inst 92799.457995                       # average overall miss latency
system.l2.overall_avg_miss_latency::cpu.data 101254.860568                       # average overall miss latency
system.l2.overall_avg_miss_latency::total 101253.878711                       # average overall miss latency
system.l2.blocked_cycles::no_mshrs                  0                       # number of cycles access was blocked
system.l2.blocked_cycles::no_targets                0                       # number of cycles access was blocked
system.l2.blocked::no_mshrs                         0                       # number of cycles access was blocked
system.l2.blocked::no_targets                       0                       # number of cycles access was blocked
system.l2.avg_blocked_cycles::no_mshrs            nan                       # average number of cycles each access was blocked
system.l2.avg_blocked_cycles::no_targets          nan                       # average number of cycles each access was blocked
system.l2.writebacks::writebacks              1109383                       # number of writebacks
system.l2.writebacks::total                   1109383                       # number of writebacks
system.l2.CleanEvict_mshr_misses::writebacks        13418                       # number of CleanEvict MSHR misses
system.l2.CleanEvict_mshr_misses::total         13418                       # number of CleanEvict MSHR misses
system.l2.ReadExReq_mshr_misses::cpu.data       209302                       # number of ReadExReq MSHR misses
system.l2.ReadExReq_mshr_misses::total         209302                       # number of ReadExReq MSHR misses
system.l2.ReadCleanReq_mshr_misses::cpu.inst          738                       # number of ReadCleanReq MSHR misses
system.l2.ReadCleanReq_mshr_misses::total          738                       # number of ReadCleanReq MSHR misses
system.l2.ReadSharedReq_mshr_misses::cpu.data      6145357                       # number of ReadSharedReq MSHR misses
system.l2.ReadSharedReq_mshr_misses::total      6145357                       # number of ReadSharedReq MSHR misses
system.l2.demand_mshr_misses::cpu.inst            738                       # number of demand (read+write) MSHR misses
system.l2.demand_mshr_misses::cpu.data        6354659                       # number of demand (read+write) MSHR misses
system.l2.demand_mshr_misses::total           6355397                       # number of demand (read+write) MSHR misses
system.l2.overall_mshr_misses::cpu.inst           738                       # number of overall MSHR misses
system.l2.overall_mshr_misses::cpu.data       6354659                       # number of overall MSHR misses
system.l2.overall_mshr_misses::total          6355397                       # number of overall MSHR misses
system.l2.ReadExReq_mshr_miss_latency::cpu.data  18169827000                       # number of ReadExReq MSHR miss cycles
system.l2.ReadExReq_mshr_miss_latency::total  18169827000                       # number of ReadExReq MSHR miss cycles
system.l2.ReadCleanReq_mshr_miss_latency::cpu.inst     61106000                       # number of ReadCleanReq MSHR miss cycles
system.l2.ReadCleanReq_mshr_miss_latency::total     61106000                       # number of ReadCleanReq MSHR miss cycles
system.l2.ReadSharedReq_mshr_miss_latency::cpu.data 561723694000                       # number of ReadSharedReq MSHR miss cycles
system.l2.ReadSharedReq_mshr_miss_latency::total 561723694000                       # number of ReadSharedReq MSHR miss cycles
system.l2.demand_mshr_miss_latency::cpu.inst     61106000                       # number of demand (read+write) MSHR miss cycles
system.l2.demand_mshr_miss_latency::cpu.data 579893521000                       # number of demand (read+write) MSHR miss cycles
system.l2.demand_mshr_miss_latency::total 579954627000                       # number of demand (read+write) MSHR miss cycles
system.l2.overall_mshr_miss_latency::cpu.inst     61106000                       # number of overall MSHR miss cycles
system.l2.overall_mshr_miss_latency::cpu.data 579893521000                       # number of overall MSHR miss cycles
system.l2.overall_mshr_miss_latency::total 579954627000                       # number of overall MSHR miss cycles
system.l2.CleanEvict_mshr_miss_rate::writebacks          inf                       # mshr miss rate for CleanEvict accesses
system.l2.CleanEvict_mshr_miss_rate::total          inf                       # mshr miss rate for CleanEvict accesses
system.l2.ReadExReq_mshr_miss_rate::cpu.data     0.267599                       # mshr miss rate for ReadExReq accesses
system.l2.ReadExReq_mshr_miss_rate::total     0.267599                       # mshr miss rate for ReadExReq accesses
system.l2.ReadCleanReq_mshr_miss_rate::cpu.inst     0.000221                       # mshr miss rate for ReadCleanReq accesses
system.l2.ReadCleanReq_mshr_miss_rate::total     0.000221                       # mshr miss rate for ReadCleanReq accesses
system.l2.ReadSharedReq_mshr_miss_rate::cpu.data     0.437107                       # mshr miss rate for ReadSharedReq accesses
system.l2.ReadSharedReq_mshr_miss_rate::total     0.437107                       # mshr miss rate for ReadSharedReq accesses
system.l2.demand_mshr_miss_rate::cpu.inst     0.000221                       # mshr miss rate for demand accesses
system.l2.demand_mshr_miss_rate::cpu.data     0.428174                       # mshr miss rate for demand accesses
system.l2.demand_mshr_miss_rate::total       0.349671                       # mshr miss rate for demand accesses
system.l2.overall_mshr_miss_rate::cpu.inst     0.000221                       # mshr miss rate for overall accesses
system.l2.overall_mshr_miss_rate::cpu.data     0.428174                       # mshr miss rate for overall accesses
system.l2.overall_mshr_miss_rate::total      0.349671                       # mshr miss rate for overall accesses
system.l2.ReadExReq_avg_mshr_miss_latency::cpu.data 86811.530707                       # average ReadExReq mshr miss latency
system.l2.ReadExReq_avg_mshr_miss_latency::total 86811.530707                       # average ReadExReq mshr miss latency
system.l2.ReadCleanReq_avg_mshr_miss_latency::cpu.inst 82799.457995                       # average ReadCleanReq mshr miss latency
system.l2.ReadCleanReq_avg_mshr_miss_latency::total 82799.457995                       # average ReadCleanReq mshr miss latency
system.l2.ReadSharedReq_avg_mshr_miss_latency::cpu.data 91406.193977                       # average ReadSharedReq mshr miss latency
system.l2.ReadSharedReq_avg_mshr_miss_latency::total 91406.193977                       # average ReadSharedReq mshr miss latency
system.l2.demand_avg_mshr_miss_latency::cpu.inst 82799.457995                       # average overall mshr miss latency
system.l2.demand_avg_mshr_miss_latency::cpu.data 91254.860568                       # average overall mshr miss latency
system.l2.demand_avg_mshr_miss_latency::total 91253.878711                       # average overall mshr miss latency
system.l2.overall_avg_mshr_miss_latency::cpu.inst 82799.457995                       # average overall mshr miss latency
system.l2.overall_avg_mshr_miss_latency::cpu.data 91254.860568                       # average overall mshr miss latency
system.l2.overall_avg_mshr_miss_latency::total 91253.878711                       # average overall mshr miss latency
system.membus.snoop_filter.tot_requests      12694280                       # Total number of requests made to the snoop filter.
system.membus.snoop_filter.hit_single_requests      6338883                       # Number of requests hitting in the snoop filter with a single holder of the requested data.
system.membus.snoop_filter.hit_multi_requests            0                       # Number of requests hitting in the snoop filter with multiple (>1) holders of the requested data.
system.membus.snoop_filter.tot_snoops               0                       # Total number of snoops made to the snoop filter.
system.membus.snoop_filter.hit_single_snoops            0                       # Number of snoops hitting in the snoop filter with a single holder of the requested data.
system.membus.snoop_filter.hit_multi_snoops            0                       # Number of snoops hitting in the snoop filter with multiple (>1) holders of the requested data.
system.membus.pwrStateResidencyTicks::UNDEFINED 1765984122500                       # Cumulative time (in ticks) in various power states
system.membus.trans_dist::ReadResp            6146095                       # Transaction distribution
system.membus.trans_dist::WritebackDirty      1109383                       # Transaction distribution
system.membus.trans_dist::CleanEvict          5229500                       # Transaction distribution
system.membus.trans_dist::ReadExReq            209302                       # Transaction distribution
system.membus.trans_dist::ReadExResp           209302                       # Transaction distribution
system.membus.trans_dist::ReadSharedReq       6146095                       # Transaction distribution
system.membus.pkt_count_system.l2.mem_side::system.mem_ctrls.port     19049677                       # Packet count per connected master and slave (bytes)
system.membus.pkt_count_system.l2.mem_side::total     19049677                       # Packet count per connected master and slave (bytes)
system.membus.pkt_count::total               19049677                       # Packet count per connected master and slave (bytes)
system.membus.pkt_size_system.l2.mem_side::system.mem_ctrls.port    477745920                       # Cumulative packet size per connected master and slave (bytes)
system.membus.pkt_size_system.l2.mem_side::total    477745920                       # Cumulative packet size per connected master and slave (bytes)
system.membus.pkt_size::total               477745920                       # Cumulative packet size per connected master and slave (bytes)
system.membus.snoops                                0                       # Total snoops (count)
system.membus.snoopTraffic                          0                       # Total snoop traffic (bytes)
system.membus.snoop_fanout::samples           6355397                       # Request fanout histogram
system.membus.snoop_fanout::mean                    0                       # Request fanout histogram
system.membus.snoop_fanout::stdev                   0                       # Request fanout histogram
system.membus.snoop_fanout::underflows              0      0.00%      0.00% # Request fanout histogram
system.membus.snoop_fanout::0                 6355397    100.00%    100.00% # Request fanout histogram
system.membus.snoop_fanout::1                       0      0.00%    100.00% # Request fanout histogram
system.membus.snoop_fanout::overflows               0      0.00%    100.00% # Request fanout histogram
system.membus.snoop_fanout::min_value               0                       # Request fanout histogram
system.membus.snoop_fanout::max_value               0                       # Request fanout histogram
system.membus.snoop_fanout::total             6355397                       # Request fanout histogram
system.membus.reqLayer2.occupancy         17139255500                       # Layer occupancy (ticks)
system.membus.reqLayer2.utilization               1.0                       # Layer utilization (%)
system.membus.respLayer1.occupancy        35424284000                       # Layer occupancy (ticks)
system.membus.respLayer1.utilization              2.0                       # Layer utilization (%)
system.tol2bus.snoop_filter.tot_requests     36350074                       # Total number of requests made to the snoop filter.
system.tol2bus.snoop_filter.hit_single_requests     18174717                       # Number of requests hitting in the snoop filter with a single holder of the requested data.
system.tol2bus.snoop_filter.hit_multi_requests            1                       # Number of requests hitting in the snoop filter with multiple (>1) holders of the requested data.
system.tol2bus.snoop_filter.tot_snoops          21387                       # Total number of snoops made to the snoop filter.
system.tol2bus.snoop_filter.hit_single_snoops        21387                       # Number of snoops hitting in the snoop filter with a single holder of the requested data.
system.tol2bus.snoop_filter.hit_multi_snoops            0                       # Number of snoops hitting in the snoop filter with multiple (>1) holders of the requested data.
system.tol2bus.pwrStateResidencyTicks::UNDEFINED 1765984122500                       # Cumulative time (in ticks) in various power states
system.tol2bus.trans_dist::ReadResp          17393208                       # Transaction distribution
system.tol2bus.trans_dist::WritebackDirty      5842640                       # Transaction distribution
system.tol2bus.trans_dist::WritebackClean      3333912                       # Transaction distribution
system.tol2bus.trans_dist::CleanEvict        15345017                       # Transaction distribution
system.tol2bus.trans_dist::ReadExReq           782149                       # Transaction distribution
system.tol2bus.trans_dist::ReadExResp          782149                       # Transaction distribution
system.tol2bus.trans_dist::ReadCleanReq       3334040                       # Transaction distribution
system.tol2bus.trans_dist::ReadSharedReq     14059168                       # Transaction distribution
system.tol2bus.pkt_count_system.cpu.icache.mem_side::system.l2.cpu_side     10001992                       # Packet count per connected master and slave (bytes)
system.tol2bus.pkt_count_system.cpu.dcache.mem_side::system.l2.cpu_side     44523439                       # Packet count per connected master and slave (bytes)
system.tol2bus.pkt_count::total              54525431                       # Packet count per connected master and slave (bytes)
system.tol2bus.pkt_size_system.cpu.icache.mem_side::system.l2.cpu_side    426748928                       # Cumulative packet size per connected master and slave (bytes)
system.tol2bus.pkt_size_system.cpu.dcache.mem_side::system.l2.cpu_side   1252772736                       # Cumulative packet size per connected master and slave (bytes)
system.tol2bus.pkt_size::total             1679521664                       # Cumulative packet size per connected master and slave (bytes)
system.tol2bus.snoops                         6346852                       # Total snoops (count)
system.tol2bus.snoopTraffic                  71000512                       # Total snoop traffic (bytes)
system.tol2bus.snoop_fanout::samples         24522209                       # Request fanout histogram
system.tol2bus.snoop_fanout::mean            0.000872                       # Request fanout histogram
system.tol2bus.snoop_fanout::stdev           0.029520                       # Request fanout histogram
system.tol2bus.snoop_fanout::underflows             0      0.00%      0.00% # Request fanout histogram
system.tol2bus.snoop_fanout::0               24500821     99.91%     99.91% # Request fanout histogram
system.tol2bus.snoop_fanout::1                  21388      0.09%    100.00% # Request fanout histogram
system.tol2bus.snoop_fanout::2                      0      0.00%    100.00% # Request fanout histogram
system.tol2bus.snoop_fanout::3                      0      0.00%    100.00% # Request fanout histogram
system.tol2bus.snoop_fanout::4                      0      0.00%    100.00% # Request fanout histogram
system.tol2bus.snoop_fanout::overflows              0      0.00%    100.00% # Request fanout histogram
system.tol2bus.snoop_fanout::min_value              0                       # Request fanout histogram
system.tol2bus.snoop_fanout::max_value              1                       # Request fanout histogram
system.tol2bus.snoop_fanout::total           24522209                       # Request fanout histogram
system.tol2bus.reqLayer0.occupancy        26242206000                       # Layer occupancy (ticks)
system.tol2bus.reqLayer0.utilization              1.5                       # Layer utilization (%)
system.tol2bus.respLayer0.occupancy        5001060000                       # Layer occupancy (ticks)
system.tol2bus.respLayer0.utilization             0.3                       # Layer utilization (%)
system.tol2bus.respLayer1.occupancy       22261975500                       # Layer occupancy (ticks)
system.tol2bus.respLayer1.utilization             1.3                       # Layer utilization (%)

---------- End Simulation Statistics   ----------
