
---------- Begin Simulation Statistics ----------
sim_seconds                                  0.960157                       # Number of seconds simulated
sim_ticks                                960156638500                       # Number of ticks simulated
final_tick                               960156638500                       # Number of ticks from beginning of simulation (restored from checkpoints and never reset)
sim_freq                                 1000000000000                       # Frequency of simulated ticks
host_inst_rate                                 626742                       # Simulator instruction rate (inst/s)
host_op_rate                                   808222                       # Simulator op (including micro ops) rate (op/s)
host_tick_rate                             1203540852                       # Simulator tick rate (ticks/s)
host_mem_usage                                 668088                       # Number of bytes of host memory used
host_seconds                                   797.78                       # Real time elapsed on the host
sim_insts                                   500000000                       # Number of instructions simulated
sim_ops                                     644780824                       # Number of ops (including micro ops) simulated
system.voltage_domain.voltage                       1                       # Voltage in Volts
system.clk_domain.clock                          1000                       # Clock period in ticks
system.mem_ctrls.pwrStateResidencyTicks::UNDEFINED 960156638500                       # Cumulative time (in ticks) in various power states
system.mem_ctrls.bytes_read::cpu.inst           75520                       # Number of bytes read from this memory
system.mem_ctrls.bytes_read::cpu.data          292672                       # Number of bytes read from this memory
system.mem_ctrls.bytes_read::total             368192                       # Number of bytes read from this memory
system.mem_ctrls.bytes_inst_read::cpu.inst        75520                       # Number of instructions bytes read from this memory
system.mem_ctrls.bytes_inst_read::total         75520                       # Number of instructions bytes read from this memory
system.mem_ctrls.bytes_written::writebacks           64                       # Number of bytes written to this memory
system.mem_ctrls.bytes_written::total              64                       # Number of bytes written to this memory
system.mem_ctrls.num_reads::cpu.inst             2360                       # Number of read requests responded to by this memory
system.mem_ctrls.num_reads::cpu.data             9146                       # Number of read requests responded to by this memory
system.mem_ctrls.num_reads::total               11506                       # Number of read requests responded to by this memory
system.mem_ctrls.num_writes::writebacks             2                       # Number of write requests responded to by this memory
system.mem_ctrls.num_writes::total                  2                       # Number of write requests responded to by this memory
system.mem_ctrls.bw_read::cpu.inst              78654                       # Total read bandwidth from this memory (bytes/s)
system.mem_ctrls.bw_read::cpu.data             304817                       # Total read bandwidth from this memory (bytes/s)
system.mem_ctrls.bw_read::total                383471                       # Total read bandwidth from this memory (bytes/s)
system.mem_ctrls.bw_inst_read::cpu.inst         78654                       # Instruction read bandwidth from this memory (bytes/s)
system.mem_ctrls.bw_inst_read::total            78654                       # Instruction read bandwidth from this memory (bytes/s)
system.mem_ctrls.bw_write::writebacks              67                       # Write bandwidth from this memory (bytes/s)
system.mem_ctrls.bw_write::total                   67                       # Write bandwidth from this memory (bytes/s)
system.mem_ctrls.bw_total::writebacks              67                       # Total bandwidth to/from this memory (bytes/s)
system.mem_ctrls.bw_total::cpu.inst             78654                       # Total bandwidth to/from this memory (bytes/s)
system.mem_ctrls.bw_total::cpu.data            304817                       # Total bandwidth to/from this memory (bytes/s)
system.mem_ctrls.bw_total::total               383537                       # Total bandwidth to/from this memory (bytes/s)
system.mem_ctrls.readReqs                       11506                       # Number of read requests accepted
system.mem_ctrls.writeReqs                          2                       # Number of write requests accepted
system.mem_ctrls.readBursts                     11506                       # Number of DRAM read bursts, including those serviced by the write queue
system.mem_ctrls.writeBursts                        2                       # Number of DRAM write bursts, including those merged in the write queue
system.mem_ctrls.bytesReadDRAM                 736384                       # Total number of bytes read from DRAM
system.mem_ctrls.bytesReadWrQ                       0                       # Total number of bytes read from write queue
system.mem_ctrls.bytesWritten                       0                       # Total number of bytes written to DRAM
system.mem_ctrls.bytesReadSys                  368192                       # Total read bytes from the system interface side
system.mem_ctrls.bytesWrittenSys                   64                       # Total written bytes from the system interface side
system.mem_ctrls.servicedByWrQ                      0                       # Number of DRAM read bursts serviced by the write queue
system.mem_ctrls.mergedWrBursts                     1                       # Number of DRAM write bursts merged with an existing one
system.mem_ctrls.neitherReadNorWriteReqs            0                       # Number of requests that are neither read nor write
system.mem_ctrls.perBankRdBursts::0               607                       # Per bank write bursts
system.mem_ctrls.perBankRdBursts::1               674                       # Per bank write bursts
system.mem_ctrls.perBankRdBursts::2               799                       # Per bank write bursts
system.mem_ctrls.perBankRdBursts::3               610                       # Per bank write bursts
system.mem_ctrls.perBankRdBursts::4               893                       # Per bank write bursts
system.mem_ctrls.perBankRdBursts::5               770                       # Per bank write bursts
system.mem_ctrls.perBankRdBursts::6               660                       # Per bank write bursts
system.mem_ctrls.perBankRdBursts::7               792                       # Per bank write bursts
system.mem_ctrls.perBankRdBursts::8               709                       # Per bank write bursts
system.mem_ctrls.perBankRdBursts::9               714                       # Per bank write bursts
system.mem_ctrls.perBankRdBursts::10              820                       # Per bank write bursts
system.mem_ctrls.perBankRdBursts::11              899                       # Per bank write bursts
system.mem_ctrls.perBankRdBursts::12              702                       # Per bank write bursts
system.mem_ctrls.perBankRdBursts::13              628                       # Per bank write bursts
system.mem_ctrls.perBankRdBursts::14              607                       # Per bank write bursts
system.mem_ctrls.perBankRdBursts::15              622                       # Per bank write bursts
system.mem_ctrls.perBankWrBursts::0                 0                       # Per bank write bursts
system.mem_ctrls.perBankWrBursts::1                 0                       # Per bank write bursts
system.mem_ctrls.perBankWrBursts::2                 0                       # Per bank write bursts
system.mem_ctrls.perBankWrBursts::3                 0                       # Per bank write bursts
system.mem_ctrls.perBankWrBursts::4                 0                       # Per bank write bursts
system.mem_ctrls.perBankWrBursts::5                 0                       # Per bank write bursts
system.mem_ctrls.perBankWrBursts::6                 0                       # Per bank write bursts
system.mem_ctrls.perBankWrBursts::7                 0                       # Per bank write bursts
system.mem_ctrls.perBankWrBursts::8                 0                       # Per bank write bursts
system.mem_ctrls.perBankWrBursts::9                 0                       # Per bank write bursts
system.mem_ctrls.perBankWrBursts::10                0                       # Per bank write bursts
system.mem_ctrls.perBankWrBursts::11                0                       # Per bank write bursts
system.mem_ctrls.perBankWrBursts::12                0                       # Per bank write bursts
system.mem_ctrls.perBankWrBursts::13                0                       # Per bank write bursts
system.mem_ctrls.perBankWrBursts::14                0                       # Per bank write bursts
system.mem_ctrls.perBankWrBursts::15                0                       # Per bank write bursts
system.mem_ctrls.numRdRetry                         0                       # Number of times read queue was full causing retry
system.mem_ctrls.numWrRetry                         0                       # Number of times write queue was full causing retry
system.mem_ctrls.totGap                  522704728500                       # Total gap between requests
system.mem_ctrls.readPktSize::0                     0                       # Read request sizes (log2)
system.mem_ctrls.readPktSize::1                     0                       # Read request sizes (log2)
system.mem_ctrls.readPktSize::2                     0                       # Read request sizes (log2)
system.mem_ctrls.readPktSize::3                     0                       # Read request sizes (log2)
system.mem_ctrls.readPktSize::4                     0                       # Read request sizes (log2)
system.mem_ctrls.readPktSize::5                 11506                       # Read request sizes (log2)
system.mem_ctrls.readPktSize::6                     0                       # Read request sizes (log2)
system.mem_ctrls.writePktSize::0                    0                       # Write request sizes (log2)
system.mem_ctrls.writePktSize::1                    0                       # Write request sizes (log2)
system.mem_ctrls.writePktSize::2                    0                       # Write request sizes (log2)
system.mem_ctrls.writePktSize::3                    0                       # Write request sizes (log2)
system.mem_ctrls.writePktSize::4                    0                       # Write request sizes (log2)
system.mem_ctrls.writePktSize::5                    2                       # Write request sizes (log2)
system.mem_ctrls.writePktSize::6                    0                       # Write request sizes (log2)
system.mem_ctrls.rdQLenPdf::0                   11021                       # What read queue length does an incoming req see
system.mem_ctrls.rdQLenPdf::1                     244                       # What read queue length does an incoming req see
system.mem_ctrls.rdQLenPdf::2                     238                       # What read queue length does an incoming req see
system.mem_ctrls.rdQLenPdf::3                       3                       # What read queue length does an incoming req see
system.mem_ctrls.rdQLenPdf::4                       0                       # What read queue length does an incoming req see
system.mem_ctrls.rdQLenPdf::5                       0                       # What read queue length does an incoming req see
system.mem_ctrls.rdQLenPdf::6                       0                       # What read queue length does an incoming req see
system.mem_ctrls.rdQLenPdf::7                       0                       # What read queue length does an incoming req see
system.mem_ctrls.rdQLenPdf::8                       0                       # What read queue length does an incoming req see
system.mem_ctrls.rdQLenPdf::9                       0                       # What read queue length does an incoming req see
system.mem_ctrls.rdQLenPdf::10                      0                       # What read queue length does an incoming req see
system.mem_ctrls.rdQLenPdf::11                      0                       # What read queue length does an incoming req see
system.mem_ctrls.rdQLenPdf::12                      0                       # What read queue length does an incoming req see
system.mem_ctrls.rdQLenPdf::13                      0                       # What read queue length does an incoming req see
system.mem_ctrls.rdQLenPdf::14                      0                       # What read queue length does an incoming req see
system.mem_ctrls.rdQLenPdf::15                      0                       # What read queue length does an incoming req see
system.mem_ctrls.rdQLenPdf::16                      0                       # What read queue length does an incoming req see
system.mem_ctrls.rdQLenPdf::17                      0                       # What read queue length does an incoming req see
system.mem_ctrls.rdQLenPdf::18                      0                       # What read queue length does an incoming req see
system.mem_ctrls.rdQLenPdf::19                      0                       # What read queue length does an incoming req see
system.mem_ctrls.rdQLenPdf::20                      0                       # What read queue length does an incoming req see
system.mem_ctrls.rdQLenPdf::21                      0                       # What read queue length does an incoming req see
system.mem_ctrls.rdQLenPdf::22                      0                       # What read queue length does an incoming req see
system.mem_ctrls.rdQLenPdf::23                      0                       # What read queue length does an incoming req see
system.mem_ctrls.rdQLenPdf::24                      0                       # What read queue length does an incoming req see
system.mem_ctrls.rdQLenPdf::25                      0                       # What read queue length does an incoming req see
system.mem_ctrls.rdQLenPdf::26                      0                       # What read queue length does an incoming req see
system.mem_ctrls.rdQLenPdf::27                      0                       # What read queue length does an incoming req see
system.mem_ctrls.rdQLenPdf::28                      0                       # What read queue length does an incoming req see
system.mem_ctrls.rdQLenPdf::29                      0                       # What read queue length does an incoming req see
system.mem_ctrls.rdQLenPdf::30                      0                       # What read queue length does an incoming req see
system.mem_ctrls.rdQLenPdf::31                      0                       # What read queue length does an incoming req see
system.mem_ctrls.wrQLenPdf::0                       1                       # What write queue length does an incoming req see
system.mem_ctrls.wrQLenPdf::1                       0                       # What write queue length does an incoming req see
system.mem_ctrls.wrQLenPdf::2                       0                       # What write queue length does an incoming req see
system.mem_ctrls.wrQLenPdf::3                       0                       # What write queue length does an incoming req see
system.mem_ctrls.wrQLenPdf::4                       0                       # What write queue length does an incoming req see
system.mem_ctrls.wrQLenPdf::5                       0                       # What write queue length does an incoming req see
system.mem_ctrls.wrQLenPdf::6                       0                       # What write queue length does an incoming req see
system.mem_ctrls.wrQLenPdf::7                       0                       # What write queue length does an incoming req see
system.mem_ctrls.wrQLenPdf::8                       0                       # What write queue length does an incoming req see
system.mem_ctrls.wrQLenPdf::9                       0                       # What write queue length does an incoming req see
system.mem_ctrls.wrQLenPdf::10                      0                       # What write queue length does an incoming req see
system.mem_ctrls.wrQLenPdf::11                      0                       # What write queue length does an incoming req see
system.mem_ctrls.wrQLenPdf::12                      0                       # What write queue length does an incoming req see
system.mem_ctrls.wrQLenPdf::13                      0                       # What write queue length does an incoming req see
system.mem_ctrls.wrQLenPdf::14                      0                       # What write queue length does an incoming req see
system.mem_ctrls.wrQLenPdf::15                      0                       # What write queue length does an incoming req see
system.mem_ctrls.wrQLenPdf::16                      0                       # What write queue length does an incoming req see
system.mem_ctrls.wrQLenPdf::17                      0                       # What write queue length does an incoming req see
system.mem_ctrls.wrQLenPdf::18                      0                       # What write queue length does an incoming req see
system.mem_ctrls.wrQLenPdf::19                      0                       # What write queue length does an incoming req see
system.mem_ctrls.wrQLenPdf::20                      0                       # What write queue length does an incoming req see
system.mem_ctrls.wrQLenPdf::21                      0                       # What write queue length does an incoming req see
system.mem_ctrls.wrQLenPdf::22                      0                       # What write queue length does an incoming req see
system.mem_ctrls.wrQLenPdf::23                      0                       # What write queue length does an incoming req see
system.mem_ctrls.wrQLenPdf::24                      0                       # What write queue length does an incoming req see
system.mem_ctrls.wrQLenPdf::25                      0                       # What write queue length does an incoming req see
system.mem_ctrls.wrQLenPdf::26                      0                       # What write queue length does an incoming req see
system.mem_ctrls.wrQLenPdf::27                      0                       # What write queue length does an incoming req see
system.mem_ctrls.wrQLenPdf::28                      0                       # What write queue length does an incoming req see
system.mem_ctrls.wrQLenPdf::29                      0                       # What write queue length does an incoming req see
system.mem_ctrls.wrQLenPdf::30                      0                       # What write queue length does an incoming req see
system.mem_ctrls.wrQLenPdf::31                      0                       # What write queue length does an incoming req see
system.mem_ctrls.wrQLenPdf::32                      0                       # What write queue length does an incoming req see
system.mem_ctrls.wrQLenPdf::33                      0                       # What write queue length does an incoming req see
system.mem_ctrls.wrQLenPdf::34                      0                       # What write queue length does an incoming req see
system.mem_ctrls.wrQLenPdf::35                      0                       # What write queue length does an incoming req see
system.mem_ctrls.wrQLenPdf::36                      0                       # What write queue length does an incoming req see
system.mem_ctrls.wrQLenPdf::37                      0                       # What write queue length does an incoming req see
system.mem_ctrls.wrQLenPdf::38                      0                       # What write queue length does an incoming req see
system.mem_ctrls.wrQLenPdf::39                      0                       # What write queue length does an incoming req see
system.mem_ctrls.wrQLenPdf::40                      0                       # What write queue length does an incoming req see
system.mem_ctrls.wrQLenPdf::41                      0                       # What write queue length does an incoming req see
system.mem_ctrls.wrQLenPdf::42                      0                       # What write queue length does an incoming req see
system.mem_ctrls.wrQLenPdf::43                      0                       # What write queue length does an incoming req see
system.mem_ctrls.wrQLenPdf::44                      0                       # What write queue length does an incoming req see
system.mem_ctrls.wrQLenPdf::45                      0                       # What write queue length does an incoming req see
system.mem_ctrls.wrQLenPdf::46                      0                       # What write queue length does an incoming req see
system.mem_ctrls.wrQLenPdf::47                      0                       # What write queue length does an incoming req see
system.mem_ctrls.wrQLenPdf::48                      0                       # What write queue length does an incoming req see
system.mem_ctrls.wrQLenPdf::49                      0                       # What write queue length does an incoming req see
system.mem_ctrls.wrQLenPdf::50                      0                       # What write queue length does an incoming req see
system.mem_ctrls.wrQLenPdf::51                      0                       # What write queue length does an incoming req see
system.mem_ctrls.wrQLenPdf::52                      0                       # What write queue length does an incoming req see
system.mem_ctrls.wrQLenPdf::53                      0                       # What write queue length does an incoming req see
system.mem_ctrls.wrQLenPdf::54                      0                       # What write queue length does an incoming req see
system.mem_ctrls.wrQLenPdf::55                      0                       # What write queue length does an incoming req see
system.mem_ctrls.wrQLenPdf::56                      0                       # What write queue length does an incoming req see
system.mem_ctrls.wrQLenPdf::57                      0                       # What write queue length does an incoming req see
system.mem_ctrls.wrQLenPdf::58                      0                       # What write queue length does an incoming req see
system.mem_ctrls.wrQLenPdf::59                      0                       # What write queue length does an incoming req see
system.mem_ctrls.wrQLenPdf::60                      0                       # What write queue length does an incoming req see
system.mem_ctrls.wrQLenPdf::61                      0                       # What write queue length does an incoming req see
system.mem_ctrls.wrQLenPdf::62                      0                       # What write queue length does an incoming req see
system.mem_ctrls.wrQLenPdf::63                      0                       # What write queue length does an incoming req see
system.mem_ctrls.bytesPerActivate::samples         3056                       # Bytes accessed per row activation
system.mem_ctrls.bytesPerActivate::mean    240.963351                       # Bytes accessed per row activation
system.mem_ctrls.bytesPerActivate::gmean   156.638679                       # Bytes accessed per row activation
system.mem_ctrls.bytesPerActivate::stdev   283.504011                       # Bytes accessed per row activation
system.mem_ctrls.bytesPerActivate::0-127          711     23.27%     23.27% # Bytes accessed per row activation
system.mem_ctrls.bytesPerActivate::128-255         1661     54.35%     77.62% # Bytes accessed per row activation
system.mem_ctrls.bytesPerActivate::256-383          151      4.94%     82.56% # Bytes accessed per row activation
system.mem_ctrls.bytesPerActivate::384-511          103      3.37%     85.93% # Bytes accessed per row activation
system.mem_ctrls.bytesPerActivate::512-639           47      1.54%     87.47% # Bytes accessed per row activation
system.mem_ctrls.bytesPerActivate::640-767           57      1.87%     89.33% # Bytes accessed per row activation
system.mem_ctrls.bytesPerActivate::768-895           39      1.28%     90.61% # Bytes accessed per row activation
system.mem_ctrls.bytesPerActivate::896-1023           24      0.79%     91.39% # Bytes accessed per row activation
system.mem_ctrls.bytesPerActivate::1024-1151          263      8.61%    100.00% # Bytes accessed per row activation
system.mem_ctrls.bytesPerActivate::total         3056                       # Bytes accessed per row activation
system.mem_ctrls.totQLat                    200825250                       # Total ticks spent queuing
system.mem_ctrls.totMemAccLat               416562750                       # Total ticks spent from burst creation until serviced by the DRAM
system.mem_ctrls.totBusLat                   57530000                       # Total ticks spent in databus transfers
system.mem_ctrls.avgQLat                     17453.96                       # Average queueing delay per DRAM burst
system.mem_ctrls.avgBusLat                    5000.00                       # Average bus latency per DRAM burst
system.mem_ctrls.avgMemAccLat                36203.96                       # Average memory access latency per DRAM burst
system.mem_ctrls.avgRdBW                         0.77                       # Average DRAM read bandwidth in MiByte/s
system.mem_ctrls.avgWrBW                         0.00                       # Average achieved write bandwidth in MiByte/s
system.mem_ctrls.avgRdBWSys                      0.38                       # Average system read bandwidth in MiByte/s
system.mem_ctrls.avgWrBWSys                      0.00                       # Average system write bandwidth in MiByte/s
system.mem_ctrls.peakBW                      12800.00                       # Theoretical peak bandwidth in MiByte/s
system.mem_ctrls.busUtil                         0.01                       # Data bus utilization in percentage
system.mem_ctrls.busUtilRead                     0.01                       # Data bus utilization in percentage for reads
system.mem_ctrls.busUtilWrite                    0.00                       # Data bus utilization in percentage for writes
system.mem_ctrls.avgRdQLen                       1.00                       # Average read queue length when enqueuing
system.mem_ctrls.avgWrQLen                       1.00                       # Average write queue length when enqueuing
system.mem_ctrls.readRowHits                     8450                       # Number of row buffer hits during reads
system.mem_ctrls.writeRowHits                       0                       # Number of row buffer hits during writes
system.mem_ctrls.readRowHitRate                 73.44                       # Row buffer hit rate for reads
system.mem_ctrls.writeRowHitRate                 0.00                       # Row buffer hit rate for writes
system.mem_ctrls.avgGap                   45420987.88                       # Average gap between requests
system.mem_ctrls.pageHitRate                    73.43                       # Row buffer hit rate, read and write combined
system.mem_ctrls_0.actEnergy                 10552920                       # Energy for activate commands per rank (pJ)
system.mem_ctrls_0.preEnergy                  5609010                       # Energy for precharge commands per rank (pJ)
system.mem_ctrls_0.readEnergy                41447700                       # Energy for read commands per rank (pJ)
system.mem_ctrls_0.writeEnergy                      0                       # Energy for write commands per rank (pJ)
system.mem_ctrls_0.refreshEnergy         455448240.000000                       # Energy for refresh commands per rank (pJ)
system.mem_ctrls_0.actBackEnergy            157252740                       # Energy for active background per rank (pJ)
system.mem_ctrls_0.preBackEnergy             13601760                       # Energy for precharge background per rank (pJ)
system.mem_ctrls_0.actPowerDownEnergy      1803121470                       # Energy for active power-down per rank (pJ)
system.mem_ctrls_0.prePowerDownEnergy       445310880                       # Energy for precharge power-down per rank (pJ)
system.mem_ctrls_0.selfRefreshEnergy     229140011325                       # Energy for self refresh per rank (pJ)
system.mem_ctrls_0.totalEnergy           232072454235                       # Total energy per rank (pJ)
system.mem_ctrls_0.averagePower            241.702702                       # Core power per rank (mW)
system.mem_ctrls_0.totalIdleTime         522337347750                       # Total Idle time Per DRAM Rank
system.mem_ctrls_0.memoryStateTime::IDLE     14465500                       # Time in different power states
system.mem_ctrls_0.memoryStateTime::REF     192900000                       # Time in different power states
system.mem_ctrls_0.memoryStateTime::SREF 954662270750                       # Time in different power states
system.mem_ctrls_0.memoryStateTime::PRE_PDN   1159672500                       # Time in different power states
system.mem_ctrls_0.memoryStateTime::ACT     173242000                       # Time in different power states
system.mem_ctrls_0.memoryStateTime::ACT_PDN   3954087750                       # Time in different power states
system.mem_ctrls_1.actEnergy                 11266920                       # Energy for activate commands per rank (pJ)
system.mem_ctrls_1.preEnergy                  5988510                       # Energy for precharge commands per rank (pJ)
system.mem_ctrls_1.readEnergy                40705140                       # Energy for read commands per rank (pJ)
system.mem_ctrls_1.writeEnergy                      0                       # Energy for write commands per rank (pJ)
system.mem_ctrls_1.refreshEnergy         416725920.000000                       # Energy for refresh commands per rank (pJ)
system.mem_ctrls_1.actBackEnergy            151089330                       # Energy for active background per rank (pJ)
system.mem_ctrls_1.preBackEnergy             12970560                       # Energy for precharge background per rank (pJ)
system.mem_ctrls_1.actPowerDownEnergy      1676185890                       # Energy for active power-down per rank (pJ)
system.mem_ctrls_1.prePowerDownEnergy       369744480                       # Energy for precharge power-down per rank (pJ)
system.mem_ctrls_1.selfRefreshEnergy     229257657720                       # Energy for self refresh per rank (pJ)
system.mem_ctrls_1.totalEnergy           231942334470                       # Total energy per rank (pJ)
system.mem_ctrls_1.averagePower            241.567183                       # Core power per rank (mW)
system.mem_ctrls_1.totalIdleTime          16394735500                       # Total Idle time Per DRAM Rank
system.mem_ctrls_1.memoryStateTime::IDLE     14896000                       # Time in different power states
system.mem_ctrls_1.memoryStateTime::REF     176514000                       # Time in different power states
system.mem_ctrls_1.memoryStateTime::SREF 955152804500                       # Time in different power states
system.mem_ctrls_1.memoryStateTime::PRE_PDN    962880000                       # Time in different power states
system.mem_ctrls_1.memoryStateTime::ACT     173532000                       # Time in different power states
system.mem_ctrls_1.memoryStateTime::ACT_PDN   3676012000                       # Time in different power states
system.pwrStateResidencyTicks::UNDEFINED 960156638500                       # Cumulative time (in ticks) in various power states
system.cpu_voltage_domain.voltage                   1                       # Voltage in Volts
system.cpu_clk_domain.clock                       500                       # Clock period in ticks
system.cpu.dtb.walker.pwrStateResidencyTicks::UNDEFINED 960156638500                       # Cumulative time (in ticks) in various power states
system.cpu.apic_clk_domain.clock                 8000                       # Clock period in ticks
system.cpu.interrupts.pwrStateResidencyTicks::UNDEFINED 960156638500                       # Cumulative time (in ticks) in various power states
system.cpu.itb.walker.pwrStateResidencyTicks::UNDEFINED 960156638500                       # Cumulative time (in ticks) in various power states
system.cpu.workload.num_syscalls                   34                       # Number of system calls
system.cpu.pwrStateResidencyTicks::ON    960156638500                       # Cumulative time (in ticks) in various power states
system.cpu.numCycles                       1920313277                       # number of cpu cycles simulated
system.cpu.numWorkItemsStarted                      0                       # number of work items this cpu started
system.cpu.numWorkItemsCompleted                    0                       # number of work items this cpu completed
system.cpu.committedInsts                   500000000                       # Number of instructions committed
system.cpu.committedOps                     644780824                       # Number of ops (including micro ops) committed
system.cpu.num_int_alu_accesses             625781845                       # Number of integer alu accesses
system.cpu.num_fp_alu_accesses               27680885                       # Number of float alu accesses
system.cpu.num_func_calls                     1532449                       # number of times a function call or return occured
system.cpu.num_conditional_control_insts     25288260                       # number of instructions that are conditional controls
system.cpu.num_int_insts                    625781845                       # number of integer instructions
system.cpu.num_fp_insts                      27680885                       # number of float instructions
system.cpu.num_int_register_reads          1467255983                       # number of times the integer registers were read
system.cpu.num_int_register_writes          569426959                       # number of times the integer registers were written
system.cpu.num_fp_register_reads             21886167                       # number of times the floating registers were read
system.cpu.num_fp_register_writes            23676651                       # number of times the floating registers were written
system.cpu.num_cc_register_reads            187287140                       # number of times the CC registers were read
system.cpu.num_cc_register_writes           260710310                       # number of times the CC registers were written
system.cpu.num_mem_refs                     254811579                       # number of memory refs
system.cpu.num_load_insts                   219158147                       # Number of load instructions
system.cpu.num_store_insts                   35653432                       # Number of store instructions
system.cpu.num_idle_cycles                          0                       # Number of idle cycles
system.cpu.num_busy_cycles                 1920313277                       # Number of busy cycles
system.cpu.not_idle_fraction                        1                       # Percentage of non-idle cycles
system.cpu.idle_fraction                            0                       # Percentage of idle cycles
system.cpu.Branches                          27593151                       # Number of branches fetched
system.cpu.op_class::No_OpClass               1477149      0.23%      0.23% # Class of executed instruction
system.cpu.op_class::IntAlu                 363712896     56.41%     56.64% # Class of executed instruction
system.cpu.op_class::IntMult                   612864      0.10%     56.73% # Class of executed instruction
system.cpu.op_class::IntDiv                   6327906      0.98%     57.71% # Class of executed instruction
system.cpu.op_class::FloatAdd                17838430      2.77%     60.48% # Class of executed instruction
system.cpu.op_class::FloatCmp                       0      0.00%     60.48% # Class of executed instruction
system.cpu.op_class::FloatCvt                       0      0.00%     60.48% # Class of executed instruction
system.cpu.op_class::FloatMult                      0      0.00%     60.48% # Class of executed instruction
system.cpu.op_class::FloatDiv                       0      0.00%     60.48% # Class of executed instruction
system.cpu.op_class::FloatSqrt                      0      0.00%     60.48% # Class of executed instruction
system.cpu.op_class::SimdAdd                        0      0.00%     60.48% # Class of executed instruction
system.cpu.op_class::SimdAddAcc                     0      0.00%     60.48% # Class of executed instruction
system.cpu.op_class::SimdAlu                        0      0.00%     60.48% # Class of executed instruction
system.cpu.op_class::SimdCmp                        0      0.00%     60.48% # Class of executed instruction
system.cpu.op_class::SimdCvt                        0      0.00%     60.48% # Class of executed instruction
system.cpu.op_class::SimdMisc                       0      0.00%     60.48% # Class of executed instruction
system.cpu.op_class::SimdMult                       0      0.00%     60.48% # Class of executed instruction
system.cpu.op_class::SimdMultAcc                    0      0.00%     60.48% # Class of executed instruction
system.cpu.op_class::SimdShift                      0      0.00%     60.48% # Class of executed instruction
system.cpu.op_class::SimdShiftAcc                   0      0.00%     60.48% # Class of executed instruction
system.cpu.op_class::SimdSqrt                       0      0.00%     60.48% # Class of executed instruction
system.cpu.op_class::SimdFloatAdd                   0      0.00%     60.48% # Class of executed instruction
system.cpu.op_class::SimdFloatAlu                   0      0.00%     60.48% # Class of executed instruction
system.cpu.op_class::SimdFloatCmp                   0      0.00%     60.48% # Class of executed instruction
system.cpu.op_class::SimdFloatCvt                   0      0.00%     60.48% # Class of executed instruction
system.cpu.op_class::SimdFloatDiv                   0      0.00%     60.48% # Class of executed instruction
system.cpu.op_class::SimdFloatMisc                  0      0.00%     60.48% # Class of executed instruction
system.cpu.op_class::SimdFloatMult                  0      0.00%     60.48% # Class of executed instruction
system.cpu.op_class::SimdFloatMultAcc               0      0.00%     60.48% # Class of executed instruction
system.cpu.op_class::SimdFloatSqrt                  0      0.00%     60.48% # Class of executed instruction
system.cpu.op_class::MemRead                219158147     33.99%     94.47% # Class of executed instruction
system.cpu.op_class::MemWrite                35653432      5.53%    100.00% # Class of executed instruction
system.cpu.op_class::IprAccess                      0      0.00%    100.00% # Class of executed instruction
system.cpu.op_class::InstPrefetch                   0      0.00%    100.00% # Class of executed instruction
system.cpu.op_class::total                  644780824                       # Class of executed instruction
system.cpu.dcache.tags.pwrStateResidencyTicks::UNDEFINED 960156638500                       # Cumulative time (in ticks) in various power states
system.cpu.dcache.tags.replacements            706650                       # number of replacements
system.cpu.dcache.tags.tagsinuse          2046.218216                       # Cycle average of tags in use
system.cpu.dcache.tags.total_refs           254104523                       # Total number of references to valid blocks.
system.cpu.dcache.tags.sampled_refs            708698                       # Sample count of references to valid blocks.
system.cpu.dcache.tags.avg_refs            358.551207                       # Average number of references to valid blocks.
system.cpu.dcache.tags.warmup_cycle        4015208500                       # Cycle when the warmup percentage was hit.
system.cpu.dcache.tags.occ_blocks::cpu.data  2046.218216                       # Average occupied blocks per requestor
system.cpu.dcache.tags.occ_percent::cpu.data     0.999130                       # Average percentage of cache occupancy
system.cpu.dcache.tags.occ_percent::total     0.999130                       # Average percentage of cache occupancy
system.cpu.dcache.tags.occ_task_id_blocks::1024         2048                       # Occupied blocks per task id
system.cpu.dcache.tags.age_task_id_blocks_1024::0           10                       # Occupied blocks per task id
system.cpu.dcache.tags.age_task_id_blocks_1024::1           98                       # Occupied blocks per task id
system.cpu.dcache.tags.age_task_id_blocks_1024::2          950                       # Occupied blocks per task id
system.cpu.dcache.tags.age_task_id_blocks_1024::3          854                       # Occupied blocks per task id
system.cpu.dcache.tags.age_task_id_blocks_1024::4          136                       # Occupied blocks per task id
system.cpu.dcache.tags.occ_task_id_percent::1024            1                       # Percentage of cache occupancy per task id
system.cpu.dcache.tags.tag_accesses        1019961582                       # Number of tag accesses
system.cpu.dcache.tags.data_accesses       1019961582                       # Number of data accesses
system.cpu.dcache.pwrStateResidencyTicks::UNDEFINED 960156638500                       # Cumulative time (in ticks) in various power states
system.cpu.dcache.ReadReq_hits::cpu.data    218997218                       # number of ReadReq hits
system.cpu.dcache.ReadReq_hits::total       218997218                       # number of ReadReq hits
system.cpu.dcache.WriteReq_hits::cpu.data     35107302                       # number of WriteReq hits
system.cpu.dcache.WriteReq_hits::total       35107302                       # number of WriteReq hits
system.cpu.dcache.SoftPFReq_hits::cpu.data            3                       # number of SoftPFReq hits
system.cpu.dcache.SoftPFReq_hits::total             3                       # number of SoftPFReq hits
system.cpu.dcache.demand_hits::cpu.data     254104520                       # number of demand (read+write) hits
system.cpu.dcache.demand_hits::total        254104520                       # number of demand (read+write) hits
system.cpu.dcache.overall_hits::cpu.data    254104523                       # number of overall hits
system.cpu.dcache.overall_hits::total       254104523                       # number of overall hits
system.cpu.dcache.ReadReq_misses::cpu.data       160252                       # number of ReadReq misses
system.cpu.dcache.ReadReq_misses::total        160252                       # number of ReadReq misses
system.cpu.dcache.WriteReq_misses::cpu.data       546225                       # number of WriteReq misses
system.cpu.dcache.WriteReq_misses::total       546225                       # number of WriteReq misses
system.cpu.dcache.SoftPFReq_misses::cpu.data         2221                       # number of SoftPFReq misses
system.cpu.dcache.SoftPFReq_misses::total         2221                       # number of SoftPFReq misses
system.cpu.dcache.demand_misses::cpu.data       706477                       # number of demand (read+write) misses
system.cpu.dcache.demand_misses::total         706477                       # number of demand (read+write) misses
system.cpu.dcache.overall_misses::cpu.data       708698                       # number of overall misses
system.cpu.dcache.overall_misses::total        708698                       # number of overall misses
system.cpu.dcache.ReadReq_miss_latency::cpu.data   2186167500                       # number of ReadReq miss cycles
system.cpu.dcache.ReadReq_miss_latency::total   2186167500                       # number of ReadReq miss cycles
system.cpu.dcache.WriteReq_miss_latency::cpu.data   7660613500                       # number of WriteReq miss cycles
system.cpu.dcache.WriteReq_miss_latency::total   7660613500                       # number of WriteReq miss cycles
system.cpu.dcache.demand_miss_latency::cpu.data   9846781000                       # number of demand (read+write) miss cycles
system.cpu.dcache.demand_miss_latency::total   9846781000                       # number of demand (read+write) miss cycles
system.cpu.dcache.overall_miss_latency::cpu.data   9846781000                       # number of overall miss cycles
system.cpu.dcache.overall_miss_latency::total   9846781000                       # number of overall miss cycles
system.cpu.dcache.ReadReq_accesses::cpu.data    219157470                       # number of ReadReq accesses(hits+misses)
system.cpu.dcache.ReadReq_accesses::total    219157470                       # number of ReadReq accesses(hits+misses)
system.cpu.dcache.WriteReq_accesses::cpu.data     35653527                       # number of WriteReq accesses(hits+misses)
system.cpu.dcache.WriteReq_accesses::total     35653527                       # number of WriteReq accesses(hits+misses)
system.cpu.dcache.SoftPFReq_accesses::cpu.data         2224                       # number of SoftPFReq accesses(hits+misses)
system.cpu.dcache.SoftPFReq_accesses::total         2224                       # number of SoftPFReq accesses(hits+misses)
system.cpu.dcache.demand_accesses::cpu.data    254810997                       # number of demand (read+write) accesses
system.cpu.dcache.demand_accesses::total    254810997                       # number of demand (read+write) accesses
system.cpu.dcache.overall_accesses::cpu.data    254813221                       # number of overall (read+write) accesses
system.cpu.dcache.overall_accesses::total    254813221                       # number of overall (read+write) accesses
system.cpu.dcache.ReadReq_miss_rate::cpu.data     0.000731                       # miss rate for ReadReq accesses
system.cpu.dcache.ReadReq_miss_rate::total     0.000731                       # miss rate for ReadReq accesses
system.cpu.dcache.WriteReq_miss_rate::cpu.data     0.015320                       # miss rate for WriteReq accesses
system.cpu.dcache.WriteReq_miss_rate::total     0.015320                       # miss rate for WriteReq accesses
system.cpu.dcache.SoftPFReq_miss_rate::cpu.data     0.998651                       # miss rate for SoftPFReq accesses
system.cpu.dcache.SoftPFReq_miss_rate::total     0.998651                       # miss rate for SoftPFReq accesses
system.cpu.dcache.demand_miss_rate::cpu.data     0.002773                       # miss rate for demand accesses
system.cpu.dcache.demand_miss_rate::total     0.002773                       # miss rate for demand accesses
system.cpu.dcache.overall_miss_rate::cpu.data     0.002781                       # miss rate for overall accesses
system.cpu.dcache.overall_miss_rate::total     0.002781                       # miss rate for overall accesses
system.cpu.dcache.ReadReq_avg_miss_latency::cpu.data 13642.060630                       # average ReadReq miss latency
system.cpu.dcache.ReadReq_avg_miss_latency::total 13642.060630                       # average ReadReq miss latency
system.cpu.dcache.WriteReq_avg_miss_latency::cpu.data 14024.648268                       # average WriteReq miss latency
system.cpu.dcache.WriteReq_avg_miss_latency::total 14024.648268                       # average WriteReq miss latency
system.cpu.dcache.demand_avg_miss_latency::cpu.data 13937.864927                       # average overall miss latency
system.cpu.dcache.demand_avg_miss_latency::total 13937.864927                       # average overall miss latency
system.cpu.dcache.overall_avg_miss_latency::cpu.data 13894.184829                       # average overall miss latency
system.cpu.dcache.overall_avg_miss_latency::total 13894.184829                       # average overall miss latency
system.cpu.dcache.blocked_cycles::no_mshrs         1622                       # number of cycles access was blocked
system.cpu.dcache.blocked_cycles::no_targets            0                       # number of cycles access was blocked
system.cpu.dcache.blocked::no_mshrs                 5                       # number of cycles access was blocked
system.cpu.dcache.blocked::no_targets               0                       # number of cycles access was blocked
system.cpu.dcache.avg_blocked_cycles::no_mshrs   324.400000                       # average number of cycles each access was blocked
system.cpu.dcache.avg_blocked_cycles::no_targets          nan                       # average number of cycles each access was blocked
system.cpu.dcache.writebacks::writebacks       700106                       # number of writebacks
system.cpu.dcache.writebacks::total            700106                       # number of writebacks
system.cpu.dcache.ReadReq_mshr_misses::cpu.data       160252                       # number of ReadReq MSHR misses
system.cpu.dcache.ReadReq_mshr_misses::total       160252                       # number of ReadReq MSHR misses
system.cpu.dcache.WriteReq_mshr_misses::cpu.data       546225                       # number of WriteReq MSHR misses
system.cpu.dcache.WriteReq_mshr_misses::total       546225                       # number of WriteReq MSHR misses
system.cpu.dcache.SoftPFReq_mshr_misses::cpu.data         2221                       # number of SoftPFReq MSHR misses
system.cpu.dcache.SoftPFReq_mshr_misses::total         2221                       # number of SoftPFReq MSHR misses
system.cpu.dcache.demand_mshr_misses::cpu.data       706477                       # number of demand (read+write) MSHR misses
system.cpu.dcache.demand_mshr_misses::total       706477                       # number of demand (read+write) MSHR misses
system.cpu.dcache.overall_mshr_misses::cpu.data       708698                       # number of overall MSHR misses
system.cpu.dcache.overall_mshr_misses::total       708698                       # number of overall MSHR misses
system.cpu.dcache.ReadReq_mshr_miss_latency::cpu.data   2025915500                       # number of ReadReq MSHR miss cycles
system.cpu.dcache.ReadReq_mshr_miss_latency::total   2025915500                       # number of ReadReq MSHR miss cycles
system.cpu.dcache.WriteReq_mshr_miss_latency::cpu.data   7114388500                       # number of WriteReq MSHR miss cycles
system.cpu.dcache.WriteReq_mshr_miss_latency::total   7114388500                       # number of WriteReq MSHR miss cycles
system.cpu.dcache.SoftPFReq_mshr_miss_latency::cpu.data     65117000                       # number of SoftPFReq MSHR miss cycles
system.cpu.dcache.SoftPFReq_mshr_miss_latency::total     65117000                       # number of SoftPFReq MSHR miss cycles
system.cpu.dcache.demand_mshr_miss_latency::cpu.data   9140304000                       # number of demand (read+write) MSHR miss cycles
system.cpu.dcache.demand_mshr_miss_latency::total   9140304000                       # number of demand (read+write) MSHR miss cycles
system.cpu.dcache.overall_mshr_miss_latency::cpu.data   9205421000                       # number of overall MSHR miss cycles
system.cpu.dcache.overall_mshr_miss_latency::total   9205421000                       # number of overall MSHR miss cycles
system.cpu.dcache.ReadReq_mshr_miss_rate::cpu.data     0.000731                       # mshr miss rate for ReadReq accesses
system.cpu.dcache.ReadReq_mshr_miss_rate::total     0.000731                       # mshr miss rate for ReadReq accesses
system.cpu.dcache.WriteReq_mshr_miss_rate::cpu.data     0.015320                       # mshr miss rate for WriteReq accesses
system.cpu.dcache.WriteReq_mshr_miss_rate::total     0.015320                       # mshr miss rate for WriteReq accesses
system.cpu.dcache.SoftPFReq_mshr_miss_rate::cpu.data     0.998651                       # mshr miss rate for SoftPFReq accesses
system.cpu.dcache.SoftPFReq_mshr_miss_rate::total     0.998651                       # mshr miss rate for SoftPFReq accesses
system.cpu.dcache.demand_mshr_miss_rate::cpu.data     0.002773                       # mshr miss rate for demand accesses
system.cpu.dcache.demand_mshr_miss_rate::total     0.002773                       # mshr miss rate for demand accesses
system.cpu.dcache.overall_mshr_miss_rate::cpu.data     0.002781                       # mshr miss rate for overall accesses
system.cpu.dcache.overall_mshr_miss_rate::total     0.002781                       # mshr miss rate for overall accesses
system.cpu.dcache.ReadReq_avg_mshr_miss_latency::cpu.data 12642.060630                       # average ReadReq mshr miss latency
system.cpu.dcache.ReadReq_avg_mshr_miss_latency::total 12642.060630                       # average ReadReq mshr miss latency
system.cpu.dcache.WriteReq_avg_mshr_miss_latency::cpu.data 13024.648268                       # average WriteReq mshr miss latency
system.cpu.dcache.WriteReq_avg_mshr_miss_latency::total 13024.648268                       # average WriteReq mshr miss latency
system.cpu.dcache.SoftPFReq_avg_mshr_miss_latency::cpu.data 29318.775326                       # average SoftPFReq mshr miss latency
system.cpu.dcache.SoftPFReq_avg_mshr_miss_latency::total 29318.775326                       # average SoftPFReq mshr miss latency
system.cpu.dcache.demand_avg_mshr_miss_latency::cpu.data 12937.864927                       # average overall mshr miss latency
system.cpu.dcache.demand_avg_mshr_miss_latency::total 12937.864927                       # average overall mshr miss latency
system.cpu.dcache.overall_avg_mshr_miss_latency::cpu.data 12989.201324                       # average overall mshr miss latency
system.cpu.dcache.overall_avg_mshr_miss_latency::total 12989.201324                       # average overall mshr miss latency
system.cpu.dtb_walker_cache.tags.pwrStateResidencyTicks::UNDEFINED 960156638500                       # Cumulative time (in ticks) in various power states
system.cpu.dtb_walker_cache.tags.replacements            0                       # number of replacements
system.cpu.dtb_walker_cache.tags.tagsinuse            0                       # Cycle average of tags in use
system.cpu.dtb_walker_cache.tags.total_refs            0                       # Total number of references to valid blocks.
system.cpu.dtb_walker_cache.tags.sampled_refs            0                       # Sample count of references to valid blocks.
system.cpu.dtb_walker_cache.tags.avg_refs          nan                       # Average number of references to valid blocks.
system.cpu.dtb_walker_cache.tags.warmup_cycle            0                       # Cycle when the warmup percentage was hit.
system.cpu.dtb_walker_cache.tags.tag_accesses            0                       # Number of tag accesses
system.cpu.dtb_walker_cache.tags.data_accesses            0                       # Number of data accesses
system.cpu.dtb_walker_cache.pwrStateResidencyTicks::UNDEFINED 960156638500                       # Cumulative time (in ticks) in various power states
system.cpu.dtb_walker_cache.blocked_cycles::no_mshrs            0                       # number of cycles access was blocked
system.cpu.dtb_walker_cache.blocked_cycles::no_targets            0                       # number of cycles access was blocked
system.cpu.dtb_walker_cache.blocked::no_mshrs            0                       # number of cycles access was blocked
system.cpu.dtb_walker_cache.blocked::no_targets            0                       # number of cycles access was blocked
system.cpu.dtb_walker_cache.avg_blocked_cycles::no_mshrs          nan                       # average number of cycles each access was blocked
system.cpu.dtb_walker_cache.avg_blocked_cycles::no_targets          nan                       # average number of cycles each access was blocked
system.cpu.icache.tags.pwrStateResidencyTicks::UNDEFINED 960156638500                       # Cumulative time (in ticks) in various power states
system.cpu.icache.tags.replacements              1508                       # number of replacements
system.cpu.icache.tags.tagsinuse          1021.872640                       # Cycle average of tags in use
system.cpu.icache.tags.total_refs           695990700                       # Total number of references to valid blocks.
system.cpu.icache.tags.sampled_refs              2530                       # Sample count of references to valid blocks.
system.cpu.icache.tags.avg_refs          275095.138340                       # Average number of references to valid blocks.
system.cpu.icache.tags.warmup_cycle                 0                       # Cycle when the warmup percentage was hit.
system.cpu.icache.tags.occ_blocks::cpu.inst  1021.872640                       # Average occupied blocks per requestor
system.cpu.icache.tags.occ_percent::cpu.inst     0.997922                       # Average percentage of cache occupancy
system.cpu.icache.tags.occ_percent::total     0.997922                       # Average percentage of cache occupancy
system.cpu.icache.tags.occ_task_id_blocks::1024         1022                       # Occupied blocks per task id
system.cpu.icache.tags.age_task_id_blocks_1024::4         1022                       # Occupied blocks per task id
system.cpu.icache.tags.occ_task_id_percent::1024     0.998047                       # Percentage of cache occupancy per task id
system.cpu.icache.tags.tag_accesses        2783975450                       # Number of tag accesses
system.cpu.icache.tags.data_accesses       2783975450                       # Number of data accesses
system.cpu.icache.pwrStateResidencyTicks::UNDEFINED 960156638500                       # Cumulative time (in ticks) in various power states
system.cpu.icache.ReadReq_hits::cpu.inst    695990700                       # number of ReadReq hits
system.cpu.icache.ReadReq_hits::total       695990700                       # number of ReadReq hits
system.cpu.icache.demand_hits::cpu.inst     695990700                       # number of demand (read+write) hits
system.cpu.icache.demand_hits::total        695990700                       # number of demand (read+write) hits
system.cpu.icache.overall_hits::cpu.inst    695990700                       # number of overall hits
system.cpu.icache.overall_hits::total       695990700                       # number of overall hits
system.cpu.icache.ReadReq_misses::cpu.inst         2530                       # number of ReadReq misses
system.cpu.icache.ReadReq_misses::total          2530                       # number of ReadReq misses
system.cpu.icache.demand_misses::cpu.inst         2530                       # number of demand (read+write) misses
system.cpu.icache.demand_misses::total           2530                       # number of demand (read+write) misses
system.cpu.icache.overall_misses::cpu.inst         2530                       # number of overall misses
system.cpu.icache.overall_misses::total          2530                       # number of overall misses
system.cpu.icache.ReadReq_miss_latency::cpu.inst    212447000                       # number of ReadReq miss cycles
system.cpu.icache.ReadReq_miss_latency::total    212447000                       # number of ReadReq miss cycles
system.cpu.icache.demand_miss_latency::cpu.inst    212447000                       # number of demand (read+write) miss cycles
system.cpu.icache.demand_miss_latency::total    212447000                       # number of demand (read+write) miss cycles
system.cpu.icache.overall_miss_latency::cpu.inst    212447000                       # number of overall miss cycles
system.cpu.icache.overall_miss_latency::total    212447000                       # number of overall miss cycles
system.cpu.icache.ReadReq_accesses::cpu.inst    695993230                       # number of ReadReq accesses(hits+misses)
system.cpu.icache.ReadReq_accesses::total    695993230                       # number of ReadReq accesses(hits+misses)
system.cpu.icache.demand_accesses::cpu.inst    695993230                       # number of demand (read+write) accesses
system.cpu.icache.demand_accesses::total    695993230                       # number of demand (read+write) accesses
system.cpu.icache.overall_accesses::cpu.inst    695993230                       # number of overall (read+write) accesses
system.cpu.icache.overall_accesses::total    695993230                       # number of overall (read+write) accesses
system.cpu.icache.ReadReq_miss_rate::cpu.inst     0.000004                       # miss rate for ReadReq accesses
system.cpu.icache.ReadReq_miss_rate::total     0.000004                       # miss rate for ReadReq accesses
system.cpu.icache.demand_miss_rate::cpu.inst     0.000004                       # miss rate for demand accesses
system.cpu.icache.demand_miss_rate::total     0.000004                       # miss rate for demand accesses
system.cpu.icache.overall_miss_rate::cpu.inst     0.000004                       # miss rate for overall accesses
system.cpu.icache.overall_miss_rate::total     0.000004                       # miss rate for overall accesses
system.cpu.icache.ReadReq_avg_miss_latency::cpu.inst 83971.146245                       # average ReadReq miss latency
system.cpu.icache.ReadReq_avg_miss_latency::total 83971.146245                       # average ReadReq miss latency
system.cpu.icache.demand_avg_miss_latency::cpu.inst 83971.146245                       # average overall miss latency
system.cpu.icache.demand_avg_miss_latency::total 83971.146245                       # average overall miss latency
system.cpu.icache.overall_avg_miss_latency::cpu.inst 83971.146245                       # average overall miss latency
system.cpu.icache.overall_avg_miss_latency::total 83971.146245                       # average overall miss latency
system.cpu.icache.blocked_cycles::no_mshrs            0                       # number of cycles access was blocked
system.cpu.icache.blocked_cycles::no_targets            0                       # number of cycles access was blocked
system.cpu.icache.blocked::no_mshrs                 0                       # number of cycles access was blocked
system.cpu.icache.blocked::no_targets               0                       # number of cycles access was blocked
system.cpu.icache.avg_blocked_cycles::no_mshrs          nan                       # average number of cycles each access was blocked
system.cpu.icache.avg_blocked_cycles::no_targets          nan                       # average number of cycles each access was blocked
system.cpu.icache.writebacks::writebacks         1508                       # number of writebacks
system.cpu.icache.writebacks::total              1508                       # number of writebacks
system.cpu.icache.ReadReq_mshr_misses::cpu.inst         2530                       # number of ReadReq MSHR misses
system.cpu.icache.ReadReq_mshr_misses::total         2530                       # number of ReadReq MSHR misses
system.cpu.icache.demand_mshr_misses::cpu.inst         2530                       # number of demand (read+write) MSHR misses
system.cpu.icache.demand_mshr_misses::total         2530                       # number of demand (read+write) MSHR misses
system.cpu.icache.overall_mshr_misses::cpu.inst         2530                       # number of overall MSHR misses
system.cpu.icache.overall_mshr_misses::total         2530                       # number of overall MSHR misses
system.cpu.icache.ReadReq_mshr_miss_latency::cpu.inst    209917000                       # number of ReadReq MSHR miss cycles
system.cpu.icache.ReadReq_mshr_miss_latency::total    209917000                       # number of ReadReq MSHR miss cycles
system.cpu.icache.demand_mshr_miss_latency::cpu.inst    209917000                       # number of demand (read+write) MSHR miss cycles
system.cpu.icache.demand_mshr_miss_latency::total    209917000                       # number of demand (read+write) MSHR miss cycles
system.cpu.icache.overall_mshr_miss_latency::cpu.inst    209917000                       # number of overall MSHR miss cycles
system.cpu.icache.overall_mshr_miss_latency::total    209917000                       # number of overall MSHR miss cycles
system.cpu.icache.ReadReq_mshr_miss_rate::cpu.inst     0.000004                       # mshr miss rate for ReadReq accesses
system.cpu.icache.ReadReq_mshr_miss_rate::total     0.000004                       # mshr miss rate for ReadReq accesses
system.cpu.icache.demand_mshr_miss_rate::cpu.inst     0.000004                       # mshr miss rate for demand accesses
system.cpu.icache.demand_mshr_miss_rate::total     0.000004                       # mshr miss rate for demand accesses
system.cpu.icache.overall_mshr_miss_rate::cpu.inst     0.000004                       # mshr miss rate for overall accesses
system.cpu.icache.overall_mshr_miss_rate::total     0.000004                       # mshr miss rate for overall accesses
system.cpu.icache.ReadReq_avg_mshr_miss_latency::cpu.inst 82971.146245                       # average ReadReq mshr miss latency
system.cpu.icache.ReadReq_avg_mshr_miss_latency::total 82971.146245                       # average ReadReq mshr miss latency
system.cpu.icache.demand_avg_mshr_miss_latency::cpu.inst 82971.146245                       # average overall mshr miss latency
system.cpu.icache.demand_avg_mshr_miss_latency::total 82971.146245                       # average overall mshr miss latency
system.cpu.icache.overall_avg_mshr_miss_latency::cpu.inst 82971.146245                       # average overall mshr miss latency
system.cpu.icache.overall_avg_mshr_miss_latency::total 82971.146245                       # average overall mshr miss latency
system.cpu.itb_walker_cache.tags.pwrStateResidencyTicks::UNDEFINED 960156638500                       # Cumulative time (in ticks) in various power states
system.cpu.itb_walker_cache.tags.replacements            0                       # number of replacements
system.cpu.itb_walker_cache.tags.tagsinuse            0                       # Cycle average of tags in use
system.cpu.itb_walker_cache.tags.total_refs            0                       # Total number of references to valid blocks.
system.cpu.itb_walker_cache.tags.sampled_refs            0                       # Sample count of references to valid blocks.
system.cpu.itb_walker_cache.tags.avg_refs          nan                       # Average number of references to valid blocks.
system.cpu.itb_walker_cache.tags.warmup_cycle            0                       # Cycle when the warmup percentage was hit.
system.cpu.itb_walker_cache.tags.tag_accesses            0                       # Number of tag accesses
system.cpu.itb_walker_cache.tags.data_accesses            0                       # Number of data accesses
system.cpu.itb_walker_cache.pwrStateResidencyTicks::UNDEFINED 960156638500                       # Cumulative time (in ticks) in various power states
system.cpu.itb_walker_cache.blocked_cycles::no_mshrs            0                       # number of cycles access was blocked
system.cpu.itb_walker_cache.blocked_cycles::no_targets            0                       # number of cycles access was blocked
system.cpu.itb_walker_cache.blocked::no_mshrs            0                       # number of cycles access was blocked
system.cpu.itb_walker_cache.blocked::no_targets            0                       # number of cycles access was blocked
system.cpu.itb_walker_cache.avg_blocked_cycles::no_mshrs          nan                       # average number of cycles each access was blocked
system.cpu.itb_walker_cache.avg_blocked_cycles::no_targets          nan                       # average number of cycles each access was blocked
system.l2.tags.pwrStateResidencyTicks::UNDEFINED 960156638500                       # Cumulative time (in ticks) in various power states
system.l2.tags.replacements                       332                       # number of replacements
system.l2.tags.tagsinuse                 11147.169512                       # Cycle average of tags in use
system.l2.tags.total_refs                     1407727                       # Total number of references to valid blocks.
system.l2.tags.sampled_refs                     11560                       # Sample count of references to valid blocks.
system.l2.tags.avg_refs                    121.775692                       # Average number of references to valid blocks.
system.l2.tags.warmup_cycle                         0                       # Cycle when the warmup percentage was hit.
system.l2.tags.occ_blocks::writebacks       51.360976                       # Average occupied blocks per requestor
system.l2.tags.occ_blocks::cpu.inst       2187.018211                       # Average occupied blocks per requestor
system.l2.tags.occ_blocks::cpu.data       8908.790326                       # Average occupied blocks per requestor
system.l2.tags.occ_percent::writebacks       0.001567                       # Average percentage of cache occupancy
system.l2.tags.occ_percent::cpu.inst         0.066742                       # Average percentage of cache occupancy
system.l2.tags.occ_percent::cpu.data         0.271875                       # Average percentage of cache occupancy
system.l2.tags.occ_percent::total            0.340185                       # Average percentage of cache occupancy
system.l2.tags.occ_task_id_blocks::1024         11228                       # Occupied blocks per task id
system.l2.tags.age_task_id_blocks_1024::4        11228                       # Occupied blocks per task id
system.l2.tags.occ_task_id_percent::1024     0.342651                       # Percentage of cache occupancy per task id
system.l2.tags.tag_accesses                   2850332                       # Number of tag accesses
system.l2.tags.data_accesses                  2850332                       # Number of data accesses
system.l2.pwrStateResidencyTicks::UNDEFINED 960156638500                       # Cumulative time (in ticks) in various power states
system.l2.WritebackDirty_hits::writebacks       700106                       # number of WritebackDirty hits
system.l2.WritebackDirty_hits::total           700106                       # number of WritebackDirty hits
system.l2.WritebackClean_hits::writebacks         1508                       # number of WritebackClean hits
system.l2.WritebackClean_hits::total             1508                       # number of WritebackClean hits
system.l2.ReadExReq_hits::cpu.data             538801                       # number of ReadExReq hits
system.l2.ReadExReq_hits::total                538801                       # number of ReadExReq hits
system.l2.ReadCleanReq_hits::cpu.inst             170                       # number of ReadCleanReq hits
system.l2.ReadCleanReq_hits::total                170                       # number of ReadCleanReq hits
system.l2.ReadSharedReq_hits::cpu.data         160751                       # number of ReadSharedReq hits
system.l2.ReadSharedReq_hits::total            160751                       # number of ReadSharedReq hits
system.l2.demand_hits::cpu.inst                   170                       # number of demand (read+write) hits
system.l2.demand_hits::cpu.data                699552                       # number of demand (read+write) hits
system.l2.demand_hits::total                   699722                       # number of demand (read+write) hits
system.l2.overall_hits::cpu.inst                  170                       # number of overall hits
system.l2.overall_hits::cpu.data               699552                       # number of overall hits
system.l2.overall_hits::total                  699722                       # number of overall hits
system.l2.ReadExReq_misses::cpu.data             7424                       # number of ReadExReq misses
system.l2.ReadExReq_misses::total                7424                       # number of ReadExReq misses
system.l2.ReadCleanReq_misses::cpu.inst          2360                       # number of ReadCleanReq misses
system.l2.ReadCleanReq_misses::total             2360                       # number of ReadCleanReq misses
system.l2.ReadSharedReq_misses::cpu.data         1722                       # number of ReadSharedReq misses
system.l2.ReadSharedReq_misses::total            1722                       # number of ReadSharedReq misses
system.l2.demand_misses::cpu.inst                2360                       # number of demand (read+write) misses
system.l2.demand_misses::cpu.data                9146                       # number of demand (read+write) misses
system.l2.demand_misses::total                  11506                       # number of demand (read+write) misses
system.l2.overall_misses::cpu.inst               2360                       # number of overall misses
system.l2.overall_misses::cpu.data               9146                       # number of overall misses
system.l2.overall_misses::total                 11506                       # number of overall misses
system.l2.ReadExReq_miss_latency::cpu.data    637639500                       # number of ReadExReq miss cycles
system.l2.ReadExReq_miss_latency::total     637639500                       # number of ReadExReq miss cycles
system.l2.ReadCleanReq_miss_latency::cpu.inst    204337000                       # number of ReadCleanReq miss cycles
system.l2.ReadCleanReq_miss_latency::total    204337000                       # number of ReadCleanReq miss cycles
system.l2.ReadSharedReq_miss_latency::cpu.data    159437500                       # number of ReadSharedReq miss cycles
system.l2.ReadSharedReq_miss_latency::total    159437500                       # number of ReadSharedReq miss cycles
system.l2.demand_miss_latency::cpu.inst     204337000                       # number of demand (read+write) miss cycles
system.l2.demand_miss_latency::cpu.data     797077000                       # number of demand (read+write) miss cycles
system.l2.demand_miss_latency::total       1001414000                       # number of demand (read+write) miss cycles
system.l2.overall_miss_latency::cpu.inst    204337000                       # number of overall miss cycles
system.l2.overall_miss_latency::cpu.data    797077000                       # number of overall miss cycles
system.l2.overall_miss_latency::total      1001414000                       # number of overall miss cycles
system.l2.WritebackDirty_accesses::writebacks       700106                       # number of WritebackDirty accesses(hits+misses)
system.l2.WritebackDirty_accesses::total       700106                       # number of WritebackDirty accesses(hits+misses)
system.l2.WritebackClean_accesses::writebacks         1508                       # number of WritebackClean accesses(hits+misses)
system.l2.WritebackClean_accesses::total         1508                       # number of WritebackClean accesses(hits+misses)
system.l2.ReadExReq_accesses::cpu.data         546225                       # number of ReadExReq accesses(hits+misses)
system.l2.ReadExReq_accesses::total            546225                       # number of ReadExReq accesses(hits+misses)
system.l2.ReadCleanReq_accesses::cpu.inst         2530                       # number of ReadCleanReq accesses(hits+misses)
system.l2.ReadCleanReq_accesses::total           2530                       # number of ReadCleanReq accesses(hits+misses)
system.l2.ReadSharedReq_accesses::cpu.data       162473                       # number of ReadSharedReq accesses(hits+misses)
system.l2.ReadSharedReq_accesses::total        162473                       # number of ReadSharedReq accesses(hits+misses)
system.l2.demand_accesses::cpu.inst              2530                       # number of demand (read+write) accesses
system.l2.demand_accesses::cpu.data            708698                       # number of demand (read+write) accesses
system.l2.demand_accesses::total               711228                       # number of demand (read+write) accesses
system.l2.overall_accesses::cpu.inst             2530                       # number of overall (read+write) accesses
system.l2.overall_accesses::cpu.data           708698                       # number of overall (read+write) accesses
system.l2.overall_accesses::total              711228                       # number of overall (read+write) accesses
system.l2.ReadExReq_miss_rate::cpu.data      0.013591                       # miss rate for ReadExReq accesses
system.l2.ReadExReq_miss_rate::total         0.013591                       # miss rate for ReadExReq accesses
system.l2.ReadCleanReq_miss_rate::cpu.inst     0.932806                       # miss rate for ReadCleanReq accesses
system.l2.ReadCleanReq_miss_rate::total      0.932806                       # miss rate for ReadCleanReq accesses
system.l2.ReadSharedReq_miss_rate::cpu.data     0.010599                       # miss rate for ReadSharedReq accesses
system.l2.ReadSharedReq_miss_rate::total     0.010599                       # miss rate for ReadSharedReq accesses
system.l2.demand_miss_rate::cpu.inst         0.932806                       # miss rate for demand accesses
system.l2.demand_miss_rate::cpu.data         0.012905                       # miss rate for demand accesses
system.l2.demand_miss_rate::total            0.016178                       # miss rate for demand accesses
system.l2.overall_miss_rate::cpu.inst        0.932806                       # miss rate for overall accesses
system.l2.overall_miss_rate::cpu.data        0.012905                       # miss rate for overall accesses
system.l2.overall_miss_rate::total           0.016178                       # miss rate for overall accesses
system.l2.ReadExReq_avg_miss_latency::cpu.data 85888.941272                       # average ReadExReq miss latency
system.l2.ReadExReq_avg_miss_latency::total 85888.941272                       # average ReadExReq miss latency
system.l2.ReadCleanReq_avg_miss_latency::cpu.inst 86583.474576                       # average ReadCleanReq miss latency
system.l2.ReadCleanReq_avg_miss_latency::total 86583.474576                       # average ReadCleanReq miss latency
system.l2.ReadSharedReq_avg_miss_latency::cpu.data 92588.559814                       # average ReadSharedReq miss latency
system.l2.ReadSharedReq_avg_miss_latency::total 92588.559814                       # average ReadSharedReq miss latency
system.l2.demand_avg_miss_latency::cpu.inst 86583.474576                       # average overall miss latency
system.l2.demand_avg_miss_latency::cpu.data 87150.338946                       # average overall miss latency
system.l2.demand_avg_miss_latency::total 87034.069181                       # average overall miss latency
system.l2.overall_avg_miss_latency::cpu.inst 86583.474576                       # average overall miss latency
system.l2.overall_avg_miss_latency::cpu.data 87150.338946                       # average overall miss latency
system.l2.overall_avg_miss_latency::total 87034.069181                       # average overall miss latency
system.l2.blocked_cycles::no_mshrs                  0                       # number of cycles access was blocked
system.l2.blocked_cycles::no_targets                0                       # number of cycles access was blocked
system.l2.blocked::no_mshrs                         0                       # number of cycles access was blocked
system.l2.blocked::no_targets                       0                       # number of cycles access was blocked
system.l2.avg_blocked_cycles::no_mshrs            nan                       # average number of cycles each access was blocked
system.l2.avg_blocked_cycles::no_targets          nan                       # average number of cycles each access was blocked
system.l2.writebacks::writebacks                    2                       # number of writebacks
system.l2.writebacks::total                         2                       # number of writebacks
system.l2.CleanEvict_mshr_misses::writebacks           99                       # number of CleanEvict MSHR misses
system.l2.CleanEvict_mshr_misses::total            99                       # number of CleanEvict MSHR misses
system.l2.ReadExReq_mshr_misses::cpu.data         7424                       # number of ReadExReq MSHR misses
system.l2.ReadExReq_mshr_misses::total           7424                       # number of ReadExReq MSHR misses
system.l2.ReadCleanReq_mshr_misses::cpu.inst         2360                       # number of ReadCleanReq MSHR misses
system.l2.ReadCleanReq_mshr_misses::total         2360                       # number of ReadCleanReq MSHR misses
system.l2.ReadSharedReq_mshr_misses::cpu.data         1722                       # number of ReadSharedReq MSHR misses
system.l2.ReadSharedReq_mshr_misses::total         1722                       # number of ReadSharedReq MSHR misses
system.l2.demand_mshr_misses::cpu.inst           2360                       # number of demand (read+write) MSHR misses
system.l2.demand_mshr_misses::cpu.data           9146                       # number of demand (read+write) MSHR misses
system.l2.demand_mshr_misses::total             11506                       # number of demand (read+write) MSHR misses
system.l2.overall_mshr_misses::cpu.inst          2360                       # number of overall MSHR misses
system.l2.overall_mshr_misses::cpu.data          9146                       # number of overall MSHR misses
system.l2.overall_mshr_misses::total            11506                       # number of overall MSHR misses
system.l2.ReadExReq_mshr_miss_latency::cpu.data    563399500                       # number of ReadExReq MSHR miss cycles
system.l2.ReadExReq_mshr_miss_latency::total    563399500                       # number of ReadExReq MSHR miss cycles
system.l2.ReadCleanReq_mshr_miss_latency::cpu.inst    180737000                       # number of ReadCleanReq MSHR miss cycles
system.l2.ReadCleanReq_mshr_miss_latency::total    180737000                       # number of ReadCleanReq MSHR miss cycles
system.l2.ReadSharedReq_mshr_miss_latency::cpu.data    142217500                       # number of ReadSharedReq MSHR miss cycles
system.l2.ReadSharedReq_mshr_miss_latency::total    142217500                       # number of ReadSharedReq MSHR miss cycles
system.l2.demand_mshr_miss_latency::cpu.inst    180737000                       # number of demand (read+write) MSHR miss cycles
system.l2.demand_mshr_miss_latency::cpu.data    705617000                       # number of demand (read+write) MSHR miss cycles
system.l2.demand_mshr_miss_latency::total    886354000                       # number of demand (read+write) MSHR miss cycles
system.l2.overall_mshr_miss_latency::cpu.inst    180737000                       # number of overall MSHR miss cycles
system.l2.overall_mshr_miss_latency::cpu.data    705617000                       # number of overall MSHR miss cycles
system.l2.overall_mshr_miss_latency::total    886354000                       # number of overall MSHR miss cycles
system.l2.CleanEvict_mshr_miss_rate::writebacks          inf                       # mshr miss rate for CleanEvict accesses
system.l2.CleanEvict_mshr_miss_rate::total          inf                       # mshr miss rate for CleanEvict accesses
system.l2.ReadExReq_mshr_miss_rate::cpu.data     0.013591                       # mshr miss rate for ReadExReq accesses
system.l2.ReadExReq_mshr_miss_rate::total     0.013591                       # mshr miss rate for ReadExReq accesses
system.l2.ReadCleanReq_mshr_miss_rate::cpu.inst     0.932806                       # mshr miss rate for ReadCleanReq accesses
system.l2.ReadCleanReq_mshr_miss_rate::total     0.932806                       # mshr miss rate for ReadCleanReq accesses
system.l2.ReadSharedReq_mshr_miss_rate::cpu.data     0.010599                       # mshr miss rate for ReadSharedReq accesses
system.l2.ReadSharedReq_mshr_miss_rate::total     0.010599                       # mshr miss rate for ReadSharedReq accesses
system.l2.demand_mshr_miss_rate::cpu.inst     0.932806                       # mshr miss rate for demand accesses
system.l2.demand_mshr_miss_rate::cpu.data     0.012905                       # mshr miss rate for demand accesses
system.l2.demand_mshr_miss_rate::total       0.016178                       # mshr miss rate for demand accesses
system.l2.overall_mshr_miss_rate::cpu.inst     0.932806                       # mshr miss rate for overall accesses
system.l2.overall_mshr_miss_rate::cpu.data     0.012905                       # mshr miss rate for overall accesses
system.l2.overall_mshr_miss_rate::total      0.016178                       # mshr miss rate for overall accesses
system.l2.ReadExReq_avg_mshr_miss_latency::cpu.data 75888.941272                       # average ReadExReq mshr miss latency
system.l2.ReadExReq_avg_mshr_miss_latency::total 75888.941272                       # average ReadExReq mshr miss latency
system.l2.ReadCleanReq_avg_mshr_miss_latency::cpu.inst 76583.474576                       # average ReadCleanReq mshr miss latency
system.l2.ReadCleanReq_avg_mshr_miss_latency::total 76583.474576                       # average ReadCleanReq mshr miss latency
system.l2.ReadSharedReq_avg_mshr_miss_latency::cpu.data 82588.559814                       # average ReadSharedReq mshr miss latency
system.l2.ReadSharedReq_avg_mshr_miss_latency::total 82588.559814                       # average ReadSharedReq mshr miss latency
system.l2.demand_avg_mshr_miss_latency::cpu.inst 76583.474576                       # average overall mshr miss latency
system.l2.demand_avg_mshr_miss_latency::cpu.data 77150.338946                       # average overall mshr miss latency
system.l2.demand_avg_mshr_miss_latency::total 77034.069181                       # average overall mshr miss latency
system.l2.overall_avg_mshr_miss_latency::cpu.inst 76583.474576                       # average overall mshr miss latency
system.l2.overall_avg_mshr_miss_latency::cpu.data 77150.338946                       # average overall mshr miss latency
system.l2.overall_avg_mshr_miss_latency::total 77034.069181                       # average overall mshr miss latency
system.membus.snoop_filter.tot_requests         11726                       # Total number of requests made to the snoop filter.
system.membus.snoop_filter.hit_single_requests          220                       # Number of requests hitting in the snoop filter with a single holder of the requested data.
system.membus.snoop_filter.hit_multi_requests            0                       # Number of requests hitting in the snoop filter with multiple (>1) holders of the requested data.
system.membus.snoop_filter.tot_snoops               0                       # Total number of snoops made to the snoop filter.
system.membus.snoop_filter.hit_single_snoops            0                       # Number of snoops hitting in the snoop filter with a single holder of the requested data.
system.membus.snoop_filter.hit_multi_snoops            0                       # Number of snoops hitting in the snoop filter with multiple (>1) holders of the requested data.
system.membus.pwrStateResidencyTicks::UNDEFINED 960156638500                       # Cumulative time (in ticks) in various power states
system.membus.trans_dist::ReadResp               4082                       # Transaction distribution
system.membus.trans_dist::WritebackDirty            2                       # Transaction distribution
system.membus.trans_dist::CleanEvict              218                       # Transaction distribution
system.membus.trans_dist::ReadExReq              7424                       # Transaction distribution
system.membus.trans_dist::ReadExResp             7424                       # Transaction distribution
system.membus.trans_dist::ReadSharedReq          4082                       # Transaction distribution
system.membus.pkt_count_system.l2.mem_side::system.mem_ctrls.port        23232                       # Packet count per connected master and slave (bytes)
system.membus.pkt_count_system.l2.mem_side::total        23232                       # Packet count per connected master and slave (bytes)
system.membus.pkt_count::total                  23232                       # Packet count per connected master and slave (bytes)
system.membus.pkt_size_system.l2.mem_side::system.mem_ctrls.port       368256                       # Cumulative packet size per connected master and slave (bytes)
system.membus.pkt_size_system.l2.mem_side::total       368256                       # Cumulative packet size per connected master and slave (bytes)
system.membus.pkt_size::total                  368256                       # Cumulative packet size per connected master and slave (bytes)
system.membus.snoops                                0                       # Total snoops (count)
system.membus.snoopTraffic                          0                       # Total snoop traffic (bytes)
system.membus.snoop_fanout::samples             11506                       # Request fanout histogram
system.membus.snoop_fanout::mean                    0                       # Request fanout histogram
system.membus.snoop_fanout::stdev                   0                       # Request fanout histogram
system.membus.snoop_fanout::underflows              0      0.00%      0.00% # Request fanout histogram
system.membus.snoop_fanout::0                   11506    100.00%    100.00% # Request fanout histogram
system.membus.snoop_fanout::1                       0      0.00%    100.00% # Request fanout histogram
system.membus.snoop_fanout::overflows               0      0.00%    100.00% # Request fanout histogram
system.membus.snoop_fanout::min_value               0                       # Request fanout histogram
system.membus.snoop_fanout::max_value               0                       # Request fanout histogram
system.membus.snoop_fanout::total               11506                       # Request fanout histogram
system.membus.reqLayer2.occupancy            11844000                       # Layer occupancy (ticks)
system.membus.reqLayer2.utilization               0.0                       # Layer utilization (%)
system.membus.respLayer1.occupancy           38202250                       # Layer occupancy (ticks)
system.membus.respLayer1.utilization              0.0                       # Layer utilization (%)
system.tol2bus.snoop_filter.tot_requests      1419386                       # Total number of requests made to the snoop filter.
system.tol2bus.snoop_filter.hit_single_requests       708158                       # Number of requests hitting in the snoop filter with a single holder of the requested data.
system.tol2bus.snoop_filter.hit_multi_requests            0                       # Number of requests hitting in the snoop filter with multiple (>1) holders of the requested data.
system.tol2bus.snoop_filter.tot_snoops            211                       # Total number of snoops made to the snoop filter.
system.tol2bus.snoop_filter.hit_single_snoops          211                       # Number of snoops hitting in the snoop filter with a single holder of the requested data.
system.tol2bus.snoop_filter.hit_multi_snoops            0                       # Number of snoops hitting in the snoop filter with multiple (>1) holders of the requested data.
system.tol2bus.pwrStateResidencyTicks::UNDEFINED 960156638500                       # Cumulative time (in ticks) in various power states
system.tol2bus.trans_dist::ReadResp            165003                       # Transaction distribution
system.tol2bus.trans_dist::WritebackDirty       700108                       # Transaction distribution
system.tol2bus.trans_dist::WritebackClean         1508                       # Transaction distribution
system.tol2bus.trans_dist::CleanEvict            6874                       # Transaction distribution
system.tol2bus.trans_dist::ReadExReq           546225                       # Transaction distribution
system.tol2bus.trans_dist::ReadExResp          546225                       # Transaction distribution
system.tol2bus.trans_dist::ReadCleanReq          2530                       # Transaction distribution
system.tol2bus.trans_dist::ReadSharedReq       162473                       # Transaction distribution
system.tol2bus.pkt_count_system.cpu.icache.mem_side::system.l2.cpu_side         6568                       # Packet count per connected master and slave (bytes)
system.tol2bus.pkt_count_system.cpu.dcache.mem_side::system.l2.cpu_side      2124046                       # Packet count per connected master and slave (bytes)
system.tol2bus.pkt_count::total               2130614                       # Packet count per connected master and slave (bytes)
system.tol2bus.pkt_size_system.cpu.icache.mem_side::system.l2.cpu_side       129216                       # Cumulative packet size per connected master and slave (bytes)
system.tol2bus.pkt_size_system.cpu.dcache.mem_side::system.l2.cpu_side     45081728                       # Cumulative packet size per connected master and slave (bytes)
system.tol2bus.pkt_size::total               45210944                       # Cumulative packet size per connected master and slave (bytes)
system.tol2bus.snoops                             332                       # Total snoops (count)
system.tol2bus.snoopTraffic                        64                       # Total snoop traffic (bytes)
system.tol2bus.snoop_fanout::samples           711560                       # Request fanout histogram
system.tol2bus.snoop_fanout::mean            0.000297                       # Request fanout histogram
system.tol2bus.snoop_fanout::stdev           0.017218                       # Request fanout histogram
system.tol2bus.snoop_fanout::underflows             0      0.00%      0.00% # Request fanout histogram
system.tol2bus.snoop_fanout::0                 711349     99.97%     99.97% # Request fanout histogram
system.tol2bus.snoop_fanout::1                    211      0.03%    100.00% # Request fanout histogram
system.tol2bus.snoop_fanout::2                      0      0.00%    100.00% # Request fanout histogram
system.tol2bus.snoop_fanout::3                      0      0.00%    100.00% # Request fanout histogram
system.tol2bus.snoop_fanout::4                      0      0.00%    100.00% # Request fanout histogram
system.tol2bus.snoop_fanout::overflows              0      0.00%    100.00% # Request fanout histogram
system.tol2bus.snoop_fanout::min_value              0                       # Request fanout histogram
system.tol2bus.snoop_fanout::max_value              1                       # Request fanout histogram
system.tol2bus.snoop_fanout::total             711560                       # Request fanout histogram
system.tol2bus.reqLayer0.occupancy         1060500000                       # Layer occupancy (ticks)
system.tol2bus.reqLayer0.utilization              0.1                       # Layer utilization (%)
system.tol2bus.respLayer0.occupancy           2530000                       # Layer occupancy (ticks)
system.tol2bus.respLayer0.utilization             0.0                       # Layer utilization (%)
system.tol2bus.respLayer1.occupancy         708698000                       # Layer occupancy (ticks)
system.tol2bus.respLayer1.utilization             0.1                       # Layer utilization (%)

---------- End Simulation Statistics   ----------
