
---------- Begin Simulation Statistics ----------
sim_seconds                                  1.580223                       # Number of seconds simulated
sim_ticks                                1580222893500                       # Number of ticks simulated
final_tick                               1580222893500                       # Number of ticks from beginning of simulation (restored from checkpoints and never reset)
sim_freq                                 1000000000000                       # Frequency of simulated ticks
host_inst_rate                                 475863                       # Simulator instruction rate (inst/s)
host_op_rate                                   617635                       # Simulator op (including micro ops) rate (op/s)
host_tick_rate                             1503939147                       # Simulator tick rate (ticks/s)
host_mem_usage                                 658544                       # Number of bytes of host memory used
host_seconds                                  1050.72                       # Real time elapsed on the host
sim_insts                                   500000000                       # Number of instructions simulated
sim_ops                                     648963383                       # Number of ops (including micro ops) simulated
system.voltage_domain.voltage                       1                       # Voltage in Volts
system.clk_domain.clock                          1000                       # Clock period in ticks
system.mem_ctrls.pwrStateResidencyTicks::UNDEFINED 1580222893500                       # Cumulative time (in ticks) in various power states
system.mem_ctrls.bytes_read::cpu.inst           34880                       # Number of bytes read from this memory
system.mem_ctrls.bytes_read::cpu.data       457432896                       # Number of bytes read from this memory
system.mem_ctrls.bytes_read::total          457467776                       # Number of bytes read from this memory
system.mem_ctrls.bytes_inst_read::cpu.inst        34880                       # Number of instructions bytes read from this memory
system.mem_ctrls.bytes_inst_read::total         34880                       # Number of instructions bytes read from this memory
system.mem_ctrls.bytes_written::writebacks    456900096                       # Number of bytes written to this memory
system.mem_ctrls.bytes_written::total       456900096                       # Number of bytes written to this memory
system.mem_ctrls.num_reads::cpu.inst              545                       # Number of read requests responded to by this memory
system.mem_ctrls.num_reads::cpu.data          7147389                       # Number of read requests responded to by this memory
system.mem_ctrls.num_reads::total             7147934                       # Number of read requests responded to by this memory
system.mem_ctrls.num_writes::writebacks       7139064                       # Number of write requests responded to by this memory
system.mem_ctrls.num_writes::total            7139064                       # Number of write requests responded to by this memory
system.mem_ctrls.bw_read::cpu.inst              22073                       # Total read bandwidth from this memory (bytes/s)
system.mem_ctrls.bw_read::cpu.data          289473655                       # Total read bandwidth from this memory (bytes/s)
system.mem_ctrls.bw_read::total             289495727                       # Total read bandwidth from this memory (bytes/s)
system.mem_ctrls.bw_inst_read::cpu.inst         22073                       # Instruction read bandwidth from this memory (bytes/s)
system.mem_ctrls.bw_inst_read::total            22073                       # Instruction read bandwidth from this memory (bytes/s)
system.mem_ctrls.bw_write::writebacks       289136487                       # Write bandwidth from this memory (bytes/s)
system.mem_ctrls.bw_write::total            289136487                       # Write bandwidth from this memory (bytes/s)
system.mem_ctrls.bw_total::writebacks       289136487                       # Total bandwidth to/from this memory (bytes/s)
system.mem_ctrls.bw_total::cpu.inst             22073                       # Total bandwidth to/from this memory (bytes/s)
system.mem_ctrls.bw_total::cpu.data         289473655                       # Total bandwidth to/from this memory (bytes/s)
system.mem_ctrls.bw_total::total            578632214                       # Total bandwidth to/from this memory (bytes/s)
system.mem_ctrls.readReqs                     7147934                       # Number of read requests accepted
system.mem_ctrls.writeReqs                    7139064                       # Number of write requests accepted
system.mem_ctrls.readBursts                   7147934                       # Number of DRAM read bursts, including those serviced by the write queue
system.mem_ctrls.writeBursts                  7139064                       # Number of DRAM write bursts, including those merged in the write queue
system.mem_ctrls.bytesReadDRAM              457467776                       # Total number of bytes read from DRAM
system.mem_ctrls.bytesReadWrQ                       0                       # Total number of bytes read from write queue
system.mem_ctrls.bytesWritten               456899072                       # Total number of bytes written to DRAM
system.mem_ctrls.bytesReadSys               457467776                       # Total read bytes from the system interface side
system.mem_ctrls.bytesWrittenSys            456900096                       # Total written bytes from the system interface side
system.mem_ctrls.servicedByWrQ                      0                       # Number of DRAM read bursts serviced by the write queue
system.mem_ctrls.mergedWrBursts                     0                       # Number of DRAM write bursts merged with an existing one
system.mem_ctrls.neitherReadNorWriteReqs            0                       # Number of requests that are neither read nor write
system.mem_ctrls.perBankRdBursts::0            446964                       # Per bank write bursts
system.mem_ctrls.perBankRdBursts::1            446743                       # Per bank write bursts
system.mem_ctrls.perBankRdBursts::2            446901                       # Per bank write bursts
system.mem_ctrls.perBankRdBursts::3            446731                       # Per bank write bursts
system.mem_ctrls.perBankRdBursts::4            446765                       # Per bank write bursts
system.mem_ctrls.perBankRdBursts::5            446779                       # Per bank write bursts
system.mem_ctrls.perBankRdBursts::6            446734                       # Per bank write bursts
system.mem_ctrls.perBankRdBursts::7            446629                       # Per bank write bursts
system.mem_ctrls.perBankRdBursts::8            446570                       # Per bank write bursts
system.mem_ctrls.perBankRdBursts::9            446727                       # Per bank write bursts
system.mem_ctrls.perBankRdBursts::10           446617                       # Per bank write bursts
system.mem_ctrls.perBankRdBursts::11           446738                       # Per bank write bursts
system.mem_ctrls.perBankRdBursts::12           446786                       # Per bank write bursts
system.mem_ctrls.perBankRdBursts::13           446692                       # Per bank write bursts
system.mem_ctrls.perBankRdBursts::14           446866                       # Per bank write bursts
system.mem_ctrls.perBankRdBursts::15           446692                       # Per bank write bursts
system.mem_ctrls.perBankWrBursts::0            446344                       # Per bank write bursts
system.mem_ctrls.perBankWrBursts::1            446212                       # Per bank write bursts
system.mem_ctrls.perBankWrBursts::2            446316                       # Per bank write bursts
system.mem_ctrls.perBankWrBursts::3            446188                       # Per bank write bursts
system.mem_ctrls.perBankWrBursts::4            446224                       # Per bank write bursts
system.mem_ctrls.perBankWrBursts::5            446250                       # Per bank write bursts
system.mem_ctrls.perBankWrBursts::6            446094                       # Per bank write bursts
system.mem_ctrls.perBankWrBursts::7            446075                       # Per bank write bursts
system.mem_ctrls.perBankWrBursts::8            446054                       # Per bank write bursts
system.mem_ctrls.perBankWrBursts::9            446150                       # Per bank write bursts
system.mem_ctrls.perBankWrBursts::10           446078                       # Per bank write bursts
system.mem_ctrls.perBankWrBursts::11           446192                       # Per bank write bursts
system.mem_ctrls.perBankWrBursts::12           446159                       # Per bank write bursts
system.mem_ctrls.perBankWrBursts::13           446143                       # Per bank write bursts
system.mem_ctrls.perBankWrBursts::14           446388                       # Per bank write bursts
system.mem_ctrls.perBankWrBursts::15           446181                       # Per bank write bursts
system.mem_ctrls.numRdRetry                         0                       # Number of times read queue was full causing retry
system.mem_ctrls.numWrRetry                         0                       # Number of times write queue was full causing retry
system.mem_ctrls.totGap                  1579360524500                       # Total gap between requests
system.mem_ctrls.readPktSize::0                     0                       # Read request sizes (log2)
system.mem_ctrls.readPktSize::1                     0                       # Read request sizes (log2)
system.mem_ctrls.readPktSize::2                     0                       # Read request sizes (log2)
system.mem_ctrls.readPktSize::3                     0                       # Read request sizes (log2)
system.mem_ctrls.readPktSize::4                     0                       # Read request sizes (log2)
system.mem_ctrls.readPktSize::5                     0                       # Read request sizes (log2)
system.mem_ctrls.readPktSize::6               7147934                       # Read request sizes (log2)
system.mem_ctrls.writePktSize::0                    0                       # Write request sizes (log2)
system.mem_ctrls.writePktSize::1                    0                       # Write request sizes (log2)
system.mem_ctrls.writePktSize::2                    0                       # Write request sizes (log2)
system.mem_ctrls.writePktSize::3                    0                       # Write request sizes (log2)
system.mem_ctrls.writePktSize::4                    0                       # Write request sizes (log2)
system.mem_ctrls.writePktSize::5                    0                       # Write request sizes (log2)
system.mem_ctrls.writePktSize::6              7139064                       # Write request sizes (log2)
system.mem_ctrls.rdQLenPdf::0                 7147934                       # What read queue length does an incoming req see
system.mem_ctrls.rdQLenPdf::1                       0                       # What read queue length does an incoming req see
system.mem_ctrls.rdQLenPdf::2                       0                       # What read queue length does an incoming req see
system.mem_ctrls.rdQLenPdf::3                       0                       # What read queue length does an incoming req see
system.mem_ctrls.rdQLenPdf::4                       0                       # What read queue length does an incoming req see
system.mem_ctrls.rdQLenPdf::5                       0                       # What read queue length does an incoming req see
system.mem_ctrls.rdQLenPdf::6                       0                       # What read queue length does an incoming req see
system.mem_ctrls.rdQLenPdf::7                       0                       # What read queue length does an incoming req see
system.mem_ctrls.rdQLenPdf::8                       0                       # What read queue length does an incoming req see
system.mem_ctrls.rdQLenPdf::9                       0                       # What read queue length does an incoming req see
system.mem_ctrls.rdQLenPdf::10                      0                       # What read queue length does an incoming req see
system.mem_ctrls.rdQLenPdf::11                      0                       # What read queue length does an incoming req see
system.mem_ctrls.rdQLenPdf::12                      0                       # What read queue length does an incoming req see
system.mem_ctrls.rdQLenPdf::13                      0                       # What read queue length does an incoming req see
system.mem_ctrls.rdQLenPdf::14                      0                       # What read queue length does an incoming req see
system.mem_ctrls.rdQLenPdf::15                      0                       # What read queue length does an incoming req see
system.mem_ctrls.rdQLenPdf::16                      0                       # What read queue length does an incoming req see
system.mem_ctrls.rdQLenPdf::17                      0                       # What read queue length does an incoming req see
system.mem_ctrls.rdQLenPdf::18                      0                       # What read queue length does an incoming req see
system.mem_ctrls.rdQLenPdf::19                      0                       # What read queue length does an incoming req see
system.mem_ctrls.rdQLenPdf::20                      0                       # What read queue length does an incoming req see
system.mem_ctrls.rdQLenPdf::21                      0                       # What read queue length does an incoming req see
system.mem_ctrls.rdQLenPdf::22                      0                       # What read queue length does an incoming req see
system.mem_ctrls.rdQLenPdf::23                      0                       # What read queue length does an incoming req see
system.mem_ctrls.rdQLenPdf::24                      0                       # What read queue length does an incoming req see
system.mem_ctrls.rdQLenPdf::25                      0                       # What read queue length does an incoming req see
system.mem_ctrls.rdQLenPdf::26                      0                       # What read queue length does an incoming req see
system.mem_ctrls.rdQLenPdf::27                      0                       # What read queue length does an incoming req see
system.mem_ctrls.rdQLenPdf::28                      0                       # What read queue length does an incoming req see
system.mem_ctrls.rdQLenPdf::29                      0                       # What read queue length does an incoming req see
system.mem_ctrls.rdQLenPdf::30                      0                       # What read queue length does an incoming req see
system.mem_ctrls.rdQLenPdf::31                      0                       # What read queue length does an incoming req see
system.mem_ctrls.wrQLenPdf::0                       1                       # What write queue length does an incoming req see
system.mem_ctrls.wrQLenPdf::1                       1                       # What write queue length does an incoming req see
system.mem_ctrls.wrQLenPdf::2                       1                       # What write queue length does an incoming req see
system.mem_ctrls.wrQLenPdf::3                       1                       # What write queue length does an incoming req see
system.mem_ctrls.wrQLenPdf::4                       1                       # What write queue length does an incoming req see
system.mem_ctrls.wrQLenPdf::5                       1                       # What write queue length does an incoming req see
system.mem_ctrls.wrQLenPdf::6                       1                       # What write queue length does an incoming req see
system.mem_ctrls.wrQLenPdf::7                       1                       # What write queue length does an incoming req see
system.mem_ctrls.wrQLenPdf::8                       1                       # What write queue length does an incoming req see
system.mem_ctrls.wrQLenPdf::9                       1                       # What write queue length does an incoming req see
system.mem_ctrls.wrQLenPdf::10                      1                       # What write queue length does an incoming req see
system.mem_ctrls.wrQLenPdf::11                      1                       # What write queue length does an incoming req see
system.mem_ctrls.wrQLenPdf::12                      1                       # What write queue length does an incoming req see
system.mem_ctrls.wrQLenPdf::13                      1                       # What write queue length does an incoming req see
system.mem_ctrls.wrQLenPdf::14                      1                       # What write queue length does an incoming req see
system.mem_ctrls.wrQLenPdf::15                 386248                       # What write queue length does an incoming req see
system.mem_ctrls.wrQLenPdf::16                 387132                       # What write queue length does an incoming req see
system.mem_ctrls.wrQLenPdf::17                 397853                       # What write queue length does an incoming req see
system.mem_ctrls.wrQLenPdf::18                 397854                       # What write queue length does an incoming req see
system.mem_ctrls.wrQLenPdf::19                 397856                       # What write queue length does an incoming req see
system.mem_ctrls.wrQLenPdf::20                 397854                       # What write queue length does an incoming req see
system.mem_ctrls.wrQLenPdf::21                 397856                       # What write queue length does an incoming req see
system.mem_ctrls.wrQLenPdf::22                 397855                       # What write queue length does an incoming req see
system.mem_ctrls.wrQLenPdf::23                 397854                       # What write queue length does an incoming req see
system.mem_ctrls.wrQLenPdf::24                 397854                       # What write queue length does an incoming req see
system.mem_ctrls.wrQLenPdf::25                 397854                       # What write queue length does an incoming req see
system.mem_ctrls.wrQLenPdf::26                 397854                       # What write queue length does an incoming req see
system.mem_ctrls.wrQLenPdf::27                 397854                       # What write queue length does an incoming req see
system.mem_ctrls.wrQLenPdf::28                 397854                       # What write queue length does an incoming req see
system.mem_ctrls.wrQLenPdf::29                 397855                       # What write queue length does an incoming req see
system.mem_ctrls.wrQLenPdf::30                 397854                       # What write queue length does an incoming req see
system.mem_ctrls.wrQLenPdf::31                 397854                       # What write queue length does an incoming req see
system.mem_ctrls.wrQLenPdf::32                 397854                       # What write queue length does an incoming req see
system.mem_ctrls.wrQLenPdf::33                      0                       # What write queue length does an incoming req see
system.mem_ctrls.wrQLenPdf::34                      0                       # What write queue length does an incoming req see
system.mem_ctrls.wrQLenPdf::35                      0                       # What write queue length does an incoming req see
system.mem_ctrls.wrQLenPdf::36                      0                       # What write queue length does an incoming req see
system.mem_ctrls.wrQLenPdf::37                      0                       # What write queue length does an incoming req see
system.mem_ctrls.wrQLenPdf::38                      0                       # What write queue length does an incoming req see
system.mem_ctrls.wrQLenPdf::39                      0                       # What write queue length does an incoming req see
system.mem_ctrls.wrQLenPdf::40                      0                       # What write queue length does an incoming req see
system.mem_ctrls.wrQLenPdf::41                      0                       # What write queue length does an incoming req see
system.mem_ctrls.wrQLenPdf::42                      0                       # What write queue length does an incoming req see
system.mem_ctrls.wrQLenPdf::43                      0                       # What write queue length does an incoming req see
system.mem_ctrls.wrQLenPdf::44                      0                       # What write queue length does an incoming req see
system.mem_ctrls.wrQLenPdf::45                      0                       # What write queue length does an incoming req see
system.mem_ctrls.wrQLenPdf::46                      0                       # What write queue length does an incoming req see
system.mem_ctrls.wrQLenPdf::47                      0                       # What write queue length does an incoming req see
system.mem_ctrls.wrQLenPdf::48                      0                       # What write queue length does an incoming req see
system.mem_ctrls.wrQLenPdf::49                      0                       # What write queue length does an incoming req see
system.mem_ctrls.wrQLenPdf::50                      0                       # What write queue length does an incoming req see
system.mem_ctrls.wrQLenPdf::51                      0                       # What write queue length does an incoming req see
system.mem_ctrls.wrQLenPdf::52                      0                       # What write queue length does an incoming req see
system.mem_ctrls.wrQLenPdf::53                      0                       # What write queue length does an incoming req see
system.mem_ctrls.wrQLenPdf::54                      0                       # What write queue length does an incoming req see
system.mem_ctrls.wrQLenPdf::55                      0                       # What write queue length does an incoming req see
system.mem_ctrls.wrQLenPdf::56                      0                       # What write queue length does an incoming req see
system.mem_ctrls.wrQLenPdf::57                      0                       # What write queue length does an incoming req see
system.mem_ctrls.wrQLenPdf::58                      0                       # What write queue length does an incoming req see
system.mem_ctrls.wrQLenPdf::59                      0                       # What write queue length does an incoming req see
system.mem_ctrls.wrQLenPdf::60                      0                       # What write queue length does an incoming req see
system.mem_ctrls.wrQLenPdf::61                      0                       # What write queue length does an incoming req see
system.mem_ctrls.wrQLenPdf::62                      0                       # What write queue length does an incoming req see
system.mem_ctrls.wrQLenPdf::63                      0                       # What write queue length does an incoming req see
system.mem_ctrls.bytesPerActivate::samples      1817961                       # Bytes accessed per row activation
system.mem_ctrls.bytesPerActivate::mean    502.962851                       # Bytes accessed per row activation
system.mem_ctrls.bytesPerActivate::gmean   316.703751                       # Bytes accessed per row activation
system.mem_ctrls.bytesPerActivate::stdev   408.610152                       # Bytes accessed per row activation
system.mem_ctrls.bytesPerActivate::0-127       194042     10.67%     10.67% # Bytes accessed per row activation
system.mem_ctrls.bytesPerActivate::128-255       649798     35.74%     46.42% # Bytes accessed per row activation
system.mem_ctrls.bytesPerActivate::256-383        96083      5.29%     51.70% # Bytes accessed per row activation
system.mem_ctrls.bytesPerActivate::384-511        69982      3.85%     55.55% # Bytes accessed per row activation
system.mem_ctrls.bytesPerActivate::512-639        61591      3.39%     58.94% # Bytes accessed per row activation
system.mem_ctrls.bytesPerActivate::640-767        58006      3.19%     62.13% # Bytes accessed per row activation
system.mem_ctrls.bytesPerActivate::768-895        52859      2.91%     65.04% # Bytes accessed per row activation
system.mem_ctrls.bytesPerActivate::896-1023        71041      3.91%     68.95% # Bytes accessed per row activation
system.mem_ctrls.bytesPerActivate::1024-1151       564559     31.05%    100.00% # Bytes accessed per row activation
system.mem_ctrls.bytesPerActivate::total      1817961                       # Bytes accessed per row activation
system.mem_ctrls.rdPerTurnAround::samples       397854                       # Reads before turning the bus around for writes
system.mem_ctrls.rdPerTurnAround::mean      17.966221                       # Reads before turning the bus around for writes
system.mem_ctrls.rdPerTurnAround::gmean     17.941759                       # Reads before turning the bus around for writes
system.mem_ctrls.rdPerTurnAround::stdev     12.850271                       # Reads before turning the bus around for writes
system.mem_ctrls.rdPerTurnAround::0-255        397853    100.00%    100.00% # Reads before turning the bus around for writes
system.mem_ctrls.rdPerTurnAround::7936-8191            1      0.00%    100.00% # Reads before turning the bus around for writes
system.mem_ctrls.rdPerTurnAround::total        397854                       # Reads before turning the bus around for writes
system.mem_ctrls.wrPerTurnAround::samples       397854                       # Writes before turning the bus around for reads
system.mem_ctrls.wrPerTurnAround::mean      17.943889                       # Writes before turning the bus around for reads
system.mem_ctrls.wrPerTurnAround::gmean     17.940686                       # Writes before turning the bus around for reads
system.mem_ctrls.wrPerTurnAround::stdev      0.326936                       # Writes before turning the bus around for reads
system.mem_ctrls.wrPerTurnAround::16            10722      2.69%      2.69% # Writes before turning the bus around for reads
system.mem_ctrls.wrPerTurnAround::17              885      0.22%      2.92% # Writes before turning the bus around for reads
system.mem_ctrls.wrPerTurnAround::18           386242     97.08%    100.00% # Writes before turning the bus around for reads
system.mem_ctrls.wrPerTurnAround::19                5      0.00%    100.00% # Writes before turning the bus around for reads
system.mem_ctrls.wrPerTurnAround::total        397854                       # Writes before turning the bus around for reads
system.mem_ctrls.totQLat                 116073109250                       # Total ticks spent queuing
system.mem_ctrls.totMemAccLat            250096871750                       # Total ticks spent from burst creation until serviced by the DRAM
system.mem_ctrls.totBusLat                35739670000                       # Total ticks spent in databus transfers
system.mem_ctrls.avgQLat                     16238.69                       # Average queueing delay per DRAM burst
system.mem_ctrls.avgBusLat                    5000.00                       # Average bus latency per DRAM burst
system.mem_ctrls.avgMemAccLat                34988.69                       # Average memory access latency per DRAM burst
system.mem_ctrls.avgRdBW                       289.50                       # Average DRAM read bandwidth in MiByte/s
system.mem_ctrls.avgWrBW                       289.14                       # Average achieved write bandwidth in MiByte/s
system.mem_ctrls.avgRdBWSys                    289.50                       # Average system read bandwidth in MiByte/s
system.mem_ctrls.avgWrBWSys                    289.14                       # Average system write bandwidth in MiByte/s
system.mem_ctrls.peakBW                      12800.00                       # Theoretical peak bandwidth in MiByte/s
system.mem_ctrls.busUtil                         4.52                       # Data bus utilization in percentage
system.mem_ctrls.busUtilRead                     2.26                       # Data bus utilization in percentage for reads
system.mem_ctrls.busUtilWrite                    2.26                       # Data bus utilization in percentage for writes
system.mem_ctrls.avgRdQLen                       1.00                       # Average read queue length when enqueuing
system.mem_ctrls.avgWrQLen                      24.73                       # Average write queue length when enqueuing
system.mem_ctrls.readRowHits                  6309163                       # Number of row buffer hits during reads
system.mem_ctrls.writeRowHits                 6159858                       # Number of row buffer hits during writes
system.mem_ctrls.readRowHitRate                 88.27                       # Row buffer hit rate for reads
system.mem_ctrls.writeRowHitRate                86.28                       # Row buffer hit rate for writes
system.mem_ctrls.avgGap                     110545.30                       # Average gap between requests
system.mem_ctrls.pageHitRate                    87.28                       # Row buffer hit rate, read and write combined
system.mem_ctrls_0.actEnergy               6490481340                       # Energy for activate commands per rank (pJ)
system.mem_ctrls_0.preEnergy               3449772645                       # Energy for precharge commands per rank (pJ)
system.mem_ctrls_0.readEnergy             25520116440                       # Energy for read commands per rank (pJ)
system.mem_ctrls_0.writeEnergy            18633849660                       # Energy for write commands per rank (pJ)
system.mem_ctrls_0.refreshEnergy         75426776880.000015                       # Energy for refresh commands per rank (pJ)
system.mem_ctrls_0.actBackEnergy          95409964710                       # Energy for active background per rank (pJ)
system.mem_ctrls_0.preBackEnergy           5101193760                       # Energy for precharge background per rank (pJ)
system.mem_ctrls_0.actPowerDownEnergy    272331529980                       # Energy for active power-down per rank (pJ)
system.mem_ctrls_0.prePowerDownEnergy     33719913120                       # Energy for precharge power-down per rank (pJ)
system.mem_ctrls_0.selfRefreshEnergy     165097180200                       # Energy for self refresh per rank (pJ)
system.mem_ctrls_0.totalEnergy           701189776365                       # Total energy per rank (pJ)
system.mem_ctrls_0.averagePower            443.728400                       # Core power per rank (mW)
system.mem_ctrls_0.totalIdleTime         1356849263000                       # Total Idle time Per DRAM Rank
system.mem_ctrls_0.memoryStateTime::IDLE   3014016750                       # Time in different power states
system.mem_ctrls_0.memoryStateTime::REF   31972576000                       # Time in different power states
system.mem_ctrls_0.memoryStateTime::SREF 672656039250                       # Time in different power states
system.mem_ctrls_0.memoryStateTime::PRE_PDN  87817743500                       # Time in different power states
system.mem_ctrls_0.memoryStateTime::ACT  187537001000                       # Time in different power states
system.mem_ctrls_0.memoryStateTime::ACT_PDN 597225517000                       # Time in different power states
system.mem_ctrls_1.actEnergy               6489760200                       # Energy for activate commands per rank (pJ)
system.mem_ctrls_1.preEnergy               3449389350                       # Energy for precharge commands per rank (pJ)
system.mem_ctrls_1.readEnergy             25516132320                       # Energy for read commands per rank (pJ)
system.mem_ctrls_1.writeEnergy            18631980900                       # Energy for write commands per rank (pJ)
system.mem_ctrls_1.refreshEnergy         75373917840.000015                       # Energy for refresh commands per rank (pJ)
system.mem_ctrls_1.actBackEnergy          95163926490                       # Energy for active background per rank (pJ)
system.mem_ctrls_1.preBackEnergy           5098002720                       # Energy for precharge background per rank (pJ)
system.mem_ctrls_1.actPowerDownEnergy    271977243060                       # Energy for active power-down per rank (pJ)
system.mem_ctrls_1.prePowerDownEnergy     33799487040                       # Energy for precharge power-down per rank (pJ)
system.mem_ctrls_1.selfRefreshEnergy     165399610875                       # Energy for self refresh per rank (pJ)
system.mem_ctrls_1.totalEnergy           700907723085                       # Total energy per rank (pJ)
system.mem_ctrls_1.averagePower            443.549910                       # Core power per rank (mW)
system.mem_ctrls_1.totalIdleTime         1357401009500                       # Total Idle time Per DRAM Rank
system.mem_ctrls_1.memoryStateTime::IDLE   3009381750                       # Time in different power states
system.mem_ctrls_1.memoryStateTime::REF   31950642000                       # Time in different power states
system.mem_ctrls_1.memoryStateTime::SREF 673775171250                       # Time in different power states
system.mem_ctrls_1.memoryStateTime::PRE_PDN  88024948500                       # Time in different power states
system.mem_ctrls_1.memoryStateTime::ACT  187014170250                       # Time in different power states
system.mem_ctrls_1.memoryStateTime::ACT_PDN 596448579750                       # Time in different power states
system.pwrStateResidencyTicks::UNDEFINED 1580222893500                       # Cumulative time (in ticks) in various power states
system.cpu_voltage_domain.voltage                   1                       # Voltage in Volts
system.cpu_clk_domain.clock                       500                       # Clock period in ticks
system.cpu.dtb.walker.pwrStateResidencyTicks::UNDEFINED 1580222893500                       # Cumulative time (in ticks) in various power states
system.cpu.apic_clk_domain.clock                 8000                       # Clock period in ticks
system.cpu.interrupts.pwrStateResidencyTicks::UNDEFINED 1580222893500                       # Cumulative time (in ticks) in various power states
system.cpu.itb.walker.pwrStateResidencyTicks::UNDEFINED 1580222893500                       # Cumulative time (in ticks) in various power states
system.cpu.workload.num_syscalls                  168                       # Number of system calls
system.cpu.pwrStateResidencyTicks::ON    1580222893500                       # Cumulative time (in ticks) in various power states
system.cpu.numCycles                       3160445787                       # number of cpu cycles simulated
system.cpu.numWorkItemsStarted                      0                       # number of work items this cpu started
system.cpu.numWorkItemsCompleted                    0                       # number of work items this cpu completed
system.cpu.committedInsts                   500000000                       # Number of instructions committed
system.cpu.committedOps                     648963383                       # Number of ops (including micro ops) committed
system.cpu.num_int_alu_accesses             648962728                       # Number of integer alu accesses
system.cpu.num_fp_alu_accesses                    848                       # Number of float alu accesses
system.cpu.num_func_calls                     2369346                       # number of times a function call or return occured
system.cpu.num_conditional_control_insts     15707705                       # number of instructions that are conditional controls
system.cpu.num_int_insts                    648962728                       # number of integer instructions
system.cpu.num_fp_insts                           848                       # number of float instructions
system.cpu.num_int_register_reads          1304344848                       # number of times the integer registers were read
system.cpu.num_int_register_writes          560057856                       # number of times the integer registers were written
system.cpu.num_fp_register_reads                 1341                       # number of times the floating registers were read
system.cpu.num_fp_register_writes                 581                       # number of times the floating registers were written
system.cpu.num_cc_register_reads             95274047                       # number of times the CC registers were read
system.cpu.num_cc_register_writes           257707815                       # number of times the CC registers were written
system.cpu.num_mem_refs                     216142387                       # number of memory refs
system.cpu.num_load_insts                   144433139                       # Number of load instructions
system.cpu.num_store_insts                   71709248                       # Number of store instructions
system.cpu.num_idle_cycles                          0                       # Number of idle cycles
system.cpu.num_busy_cycles                 3160445787                       # Number of busy cycles
system.cpu.not_idle_fraction                        1                       # Percentage of non-idle cycles
system.cpu.idle_fraction                            0                       # Percentage of idle cycles
system.cpu.Branches                          18089551                       # Number of branches fetched
system.cpu.op_class::No_OpClass                   160      0.00%      0.00% # Class of executed instruction
system.cpu.op_class::IntAlu                 431926300     66.56%     66.56% # Class of executed instruction
system.cpu.op_class::IntMult                   893946      0.14%     66.69% # Class of executed instruction
system.cpu.op_class::IntDiv                        70      0.00%     66.69% # Class of executed instruction
system.cpu.op_class::FloatAdd                     520      0.00%     66.69% # Class of executed instruction
system.cpu.op_class::FloatCmp                       0      0.00%     66.69% # Class of executed instruction
system.cpu.op_class::FloatCvt                       0      0.00%     66.69% # Class of executed instruction
system.cpu.op_class::FloatMult                      0      0.00%     66.69% # Class of executed instruction
system.cpu.op_class::FloatDiv                       0      0.00%     66.69% # Class of executed instruction
system.cpu.op_class::FloatSqrt                      0      0.00%     66.69% # Class of executed instruction
system.cpu.op_class::SimdAdd                        0      0.00%     66.69% # Class of executed instruction
system.cpu.op_class::SimdAddAcc                     0      0.00%     66.69% # Class of executed instruction
system.cpu.op_class::SimdAlu                        0      0.00%     66.69% # Class of executed instruction
system.cpu.op_class::SimdCmp                        0      0.00%     66.69% # Class of executed instruction
system.cpu.op_class::SimdCvt                        0      0.00%     66.69% # Class of executed instruction
system.cpu.op_class::SimdMisc                       0      0.00%     66.69% # Class of executed instruction
system.cpu.op_class::SimdMult                       0      0.00%     66.69% # Class of executed instruction
system.cpu.op_class::SimdMultAcc                    0      0.00%     66.69% # Class of executed instruction
system.cpu.op_class::SimdShift                      0      0.00%     66.69% # Class of executed instruction
system.cpu.op_class::SimdShiftAcc                   0      0.00%     66.69% # Class of executed instruction
system.cpu.op_class::SimdSqrt                       0      0.00%     66.69% # Class of executed instruction
system.cpu.op_class::SimdFloatAdd                   0      0.00%     66.69% # Class of executed instruction
system.cpu.op_class::SimdFloatAlu                   0      0.00%     66.69% # Class of executed instruction
system.cpu.op_class::SimdFloatCmp                   0      0.00%     66.69% # Class of executed instruction
system.cpu.op_class::SimdFloatCvt                   0      0.00%     66.69% # Class of executed instruction
system.cpu.op_class::SimdFloatDiv                   0      0.00%     66.69% # Class of executed instruction
system.cpu.op_class::SimdFloatMisc                  0      0.00%     66.69% # Class of executed instruction
system.cpu.op_class::SimdFloatMult                  0      0.00%     66.69% # Class of executed instruction
system.cpu.op_class::SimdFloatMultAcc               0      0.00%     66.69% # Class of executed instruction
system.cpu.op_class::SimdFloatSqrt                  0      0.00%     66.69% # Class of executed instruction
system.cpu.op_class::MemRead                144433139     22.26%     88.95% # Class of executed instruction
system.cpu.op_class::MemWrite                71709248     11.05%    100.00% # Class of executed instruction
system.cpu.op_class::IprAccess                      0      0.00%    100.00% # Class of executed instruction
system.cpu.op_class::InstPrefetch                   0      0.00%    100.00% # Class of executed instruction
system.cpu.op_class::total                  648963383                       # Class of executed instruction
system.cpu.dcache.tags.pwrStateResidencyTicks::UNDEFINED 1580222893500                       # Cumulative time (in ticks) in various power states
system.cpu.dcache.tags.replacements           7162205                       # number of replacements
system.cpu.dcache.tags.tagsinuse          1023.906243                       # Cycle average of tags in use
system.cpu.dcache.tags.total_refs           208979168                       # Total number of references to valid blocks.
system.cpu.dcache.tags.sampled_refs           7163229                       # Sample count of references to valid blocks.
system.cpu.dcache.tags.avg_refs             29.173878                       # Average number of references to valid blocks.
system.cpu.dcache.tags.warmup_cycle         288656500                       # Cycle when the warmup percentage was hit.
system.cpu.dcache.tags.occ_blocks::cpu.data  1023.906243                       # Average occupied blocks per requestor
system.cpu.dcache.tags.occ_percent::cpu.data     0.999908                       # Average percentage of cache occupancy
system.cpu.dcache.tags.occ_percent::total     0.999908                       # Average percentage of cache occupancy
system.cpu.dcache.tags.occ_task_id_blocks::1024         1024                       # Occupied blocks per task id
system.cpu.dcache.tags.age_task_id_blocks_1024::2           45                       # Occupied blocks per task id
system.cpu.dcache.tags.age_task_id_blocks_1024::3          973                       # Occupied blocks per task id
system.cpu.dcache.tags.age_task_id_blocks_1024::4            6                       # Occupied blocks per task id
system.cpu.dcache.tags.occ_task_id_percent::1024            1                       # Percentage of cache occupancy per task id
system.cpu.dcache.tags.tag_accesses        1736302405                       # Number of tag accesses
system.cpu.dcache.tags.data_accesses       1736302405                       # Number of data accesses
system.cpu.dcache.pwrStateResidencyTicks::UNDEFINED 1580222893500                       # Cumulative time (in ticks) in various power states
system.cpu.dcache.ReadReq_hits::cpu.data    143970172                       # number of ReadReq hits
system.cpu.dcache.ReadReq_hits::total       143970172                       # number of ReadReq hits
system.cpu.dcache.WriteReq_hits::cpu.data     65008996                       # number of WriteReq hits
system.cpu.dcache.WriteReq_hits::total       65008996                       # number of WriteReq hits
system.cpu.dcache.demand_hits::cpu.data     208979168                       # number of demand (read+write) hits
system.cpu.dcache.demand_hits::total        208979168                       # number of demand (read+write) hits
system.cpu.dcache.overall_hits::cpu.data    208979168                       # number of overall hits
system.cpu.dcache.overall_hits::total       208979168                       # number of overall hits
system.cpu.dcache.ReadReq_misses::cpu.data       462976                       # number of ReadReq misses
system.cpu.dcache.ReadReq_misses::total        462976                       # number of ReadReq misses
system.cpu.dcache.WriteReq_misses::cpu.data      6700253                       # number of WriteReq misses
system.cpu.dcache.WriteReq_misses::total      6700253                       # number of WriteReq misses
system.cpu.dcache.demand_misses::cpu.data      7163229                       # number of demand (read+write) misses
system.cpu.dcache.demand_misses::total        7163229                       # number of demand (read+write) misses
system.cpu.dcache.overall_misses::cpu.data      7163229                       # number of overall misses
system.cpu.dcache.overall_misses::total       7163229                       # number of overall misses
system.cpu.dcache.ReadReq_miss_latency::cpu.data  39474992500                       # number of ReadReq miss cycles
system.cpu.dcache.ReadReq_miss_latency::total  39474992500                       # number of ReadReq miss cycles
system.cpu.dcache.WriteReq_miss_latency::cpu.data 591514150500                       # number of WriteReq miss cycles
system.cpu.dcache.WriteReq_miss_latency::total 591514150500                       # number of WriteReq miss cycles
system.cpu.dcache.demand_miss_latency::cpu.data 630989143000                       # number of demand (read+write) miss cycles
system.cpu.dcache.demand_miss_latency::total 630989143000                       # number of demand (read+write) miss cycles
system.cpu.dcache.overall_miss_latency::cpu.data 630989143000                       # number of overall miss cycles
system.cpu.dcache.overall_miss_latency::total 630989143000                       # number of overall miss cycles
system.cpu.dcache.ReadReq_accesses::cpu.data    144433148                       # number of ReadReq accesses(hits+misses)
system.cpu.dcache.ReadReq_accesses::total    144433148                       # number of ReadReq accesses(hits+misses)
system.cpu.dcache.WriteReq_accesses::cpu.data     71709249                       # number of WriteReq accesses(hits+misses)
system.cpu.dcache.WriteReq_accesses::total     71709249                       # number of WriteReq accesses(hits+misses)
system.cpu.dcache.demand_accesses::cpu.data    216142397                       # number of demand (read+write) accesses
system.cpu.dcache.demand_accesses::total    216142397                       # number of demand (read+write) accesses
system.cpu.dcache.overall_accesses::cpu.data    216142397                       # number of overall (read+write) accesses
system.cpu.dcache.overall_accesses::total    216142397                       # number of overall (read+write) accesses
system.cpu.dcache.ReadReq_miss_rate::cpu.data     0.003205                       # miss rate for ReadReq accesses
system.cpu.dcache.ReadReq_miss_rate::total     0.003205                       # miss rate for ReadReq accesses
system.cpu.dcache.WriteReq_miss_rate::cpu.data     0.093436                       # miss rate for WriteReq accesses
system.cpu.dcache.WriteReq_miss_rate::total     0.093436                       # miss rate for WriteReq accesses
system.cpu.dcache.demand_miss_rate::cpu.data     0.033141                       # miss rate for demand accesses
system.cpu.dcache.demand_miss_rate::total     0.033141                       # miss rate for demand accesses
system.cpu.dcache.overall_miss_rate::cpu.data     0.033141                       # miss rate for overall accesses
system.cpu.dcache.overall_miss_rate::total     0.033141                       # miss rate for overall accesses
system.cpu.dcache.ReadReq_avg_miss_latency::cpu.data 85263.582778                       # average ReadReq miss latency
system.cpu.dcache.ReadReq_avg_miss_latency::total 85263.582778                       # average ReadReq miss latency
system.cpu.dcache.WriteReq_avg_miss_latency::cpu.data 88282.360457                       # average WriteReq miss latency
system.cpu.dcache.WriteReq_avg_miss_latency::total 88282.360457                       # average WriteReq miss latency
system.cpu.dcache.demand_avg_miss_latency::cpu.data 88087.249898                       # average overall miss latency
system.cpu.dcache.demand_avg_miss_latency::total 88087.249898                       # average overall miss latency
system.cpu.dcache.overall_avg_miss_latency::cpu.data 88087.249898                       # average overall miss latency
system.cpu.dcache.overall_avg_miss_latency::total 88087.249898                       # average overall miss latency
system.cpu.dcache.blocked_cycles::no_mshrs            0                       # number of cycles access was blocked
system.cpu.dcache.blocked_cycles::no_targets            0                       # number of cycles access was blocked
system.cpu.dcache.blocked::no_mshrs                 0                       # number of cycles access was blocked
system.cpu.dcache.blocked::no_targets               0                       # number of cycles access was blocked
system.cpu.dcache.avg_blocked_cycles::no_mshrs          nan                       # average number of cycles each access was blocked
system.cpu.dcache.avg_blocked_cycles::no_targets          nan                       # average number of cycles each access was blocked
system.cpu.dcache.writebacks::writebacks      7146412                       # number of writebacks
system.cpu.dcache.writebacks::total           7146412                       # number of writebacks
system.cpu.dcache.ReadReq_mshr_misses::cpu.data       462976                       # number of ReadReq MSHR misses
system.cpu.dcache.ReadReq_mshr_misses::total       462976                       # number of ReadReq MSHR misses
system.cpu.dcache.WriteReq_mshr_misses::cpu.data      6700253                       # number of WriteReq MSHR misses
system.cpu.dcache.WriteReq_mshr_misses::total      6700253                       # number of WriteReq MSHR misses
system.cpu.dcache.demand_mshr_misses::cpu.data      7163229                       # number of demand (read+write) MSHR misses
system.cpu.dcache.demand_mshr_misses::total      7163229                       # number of demand (read+write) MSHR misses
system.cpu.dcache.overall_mshr_misses::cpu.data      7163229                       # number of overall MSHR misses
system.cpu.dcache.overall_mshr_misses::total      7163229                       # number of overall MSHR misses
system.cpu.dcache.ReadReq_mshr_miss_latency::cpu.data  39012016500                       # number of ReadReq MSHR miss cycles
system.cpu.dcache.ReadReq_mshr_miss_latency::total  39012016500                       # number of ReadReq MSHR miss cycles
system.cpu.dcache.WriteReq_mshr_miss_latency::cpu.data 584813897500                       # number of WriteReq MSHR miss cycles
system.cpu.dcache.WriteReq_mshr_miss_latency::total 584813897500                       # number of WriteReq MSHR miss cycles
system.cpu.dcache.demand_mshr_miss_latency::cpu.data 623825914000                       # number of demand (read+write) MSHR miss cycles
system.cpu.dcache.demand_mshr_miss_latency::total 623825914000                       # number of demand (read+write) MSHR miss cycles
system.cpu.dcache.overall_mshr_miss_latency::cpu.data 623825914000                       # number of overall MSHR miss cycles
system.cpu.dcache.overall_mshr_miss_latency::total 623825914000                       # number of overall MSHR miss cycles
system.cpu.dcache.ReadReq_mshr_miss_rate::cpu.data     0.003205                       # mshr miss rate for ReadReq accesses
system.cpu.dcache.ReadReq_mshr_miss_rate::total     0.003205                       # mshr miss rate for ReadReq accesses
system.cpu.dcache.WriteReq_mshr_miss_rate::cpu.data     0.093436                       # mshr miss rate for WriteReq accesses
system.cpu.dcache.WriteReq_mshr_miss_rate::total     0.093436                       # mshr miss rate for WriteReq accesses
system.cpu.dcache.demand_mshr_miss_rate::cpu.data     0.033141                       # mshr miss rate for demand accesses
system.cpu.dcache.demand_mshr_miss_rate::total     0.033141                       # mshr miss rate for demand accesses
system.cpu.dcache.overall_mshr_miss_rate::cpu.data     0.033141                       # mshr miss rate for overall accesses
system.cpu.dcache.overall_mshr_miss_rate::total     0.033141                       # mshr miss rate for overall accesses
system.cpu.dcache.ReadReq_avg_mshr_miss_latency::cpu.data 84263.582778                       # average ReadReq mshr miss latency
system.cpu.dcache.ReadReq_avg_mshr_miss_latency::total 84263.582778                       # average ReadReq mshr miss latency
system.cpu.dcache.WriteReq_avg_mshr_miss_latency::cpu.data 87282.360457                       # average WriteReq mshr miss latency
system.cpu.dcache.WriteReq_avg_mshr_miss_latency::total 87282.360457                       # average WriteReq mshr miss latency
system.cpu.dcache.demand_avg_mshr_miss_latency::cpu.data 87087.249898                       # average overall mshr miss latency
system.cpu.dcache.demand_avg_mshr_miss_latency::total 87087.249898                       # average overall mshr miss latency
system.cpu.dcache.overall_avg_mshr_miss_latency::cpu.data 87087.249898                       # average overall mshr miss latency
system.cpu.dcache.overall_avg_mshr_miss_latency::total 87087.249898                       # average overall mshr miss latency
system.cpu.dtb_walker_cache.tags.pwrStateResidencyTicks::UNDEFINED 1580222893500                       # Cumulative time (in ticks) in various power states
system.cpu.dtb_walker_cache.tags.replacements            0                       # number of replacements
system.cpu.dtb_walker_cache.tags.tagsinuse            0                       # Cycle average of tags in use
system.cpu.dtb_walker_cache.tags.total_refs            0                       # Total number of references to valid blocks.
system.cpu.dtb_walker_cache.tags.sampled_refs            0                       # Sample count of references to valid blocks.
system.cpu.dtb_walker_cache.tags.avg_refs          nan                       # Average number of references to valid blocks.
system.cpu.dtb_walker_cache.tags.warmup_cycle            0                       # Cycle when the warmup percentage was hit.
system.cpu.dtb_walker_cache.tags.tag_accesses            0                       # Number of tag accesses
system.cpu.dtb_walker_cache.tags.data_accesses            0                       # Number of data accesses
system.cpu.dtb_walker_cache.pwrStateResidencyTicks::UNDEFINED 1580222893500                       # Cumulative time (in ticks) in various power states
system.cpu.dtb_walker_cache.blocked_cycles::no_mshrs            0                       # number of cycles access was blocked
system.cpu.dtb_walker_cache.blocked_cycles::no_targets            0                       # number of cycles access was blocked
system.cpu.dtb_walker_cache.blocked::no_mshrs            0                       # number of cycles access was blocked
system.cpu.dtb_walker_cache.blocked::no_targets            0                       # number of cycles access was blocked
system.cpu.dtb_walker_cache.avg_blocked_cycles::no_mshrs          nan                       # average number of cycles each access was blocked
system.cpu.dtb_walker_cache.avg_blocked_cycles::no_targets          nan                       # average number of cycles each access was blocked
system.cpu.icache.tags.pwrStateResidencyTicks::UNDEFINED 1580222893500                       # Cumulative time (in ticks) in various power states
system.cpu.icache.tags.replacements                 2                       # number of replacements
system.cpu.icache.tags.tagsinuse           495.608663                       # Cycle average of tags in use
system.cpu.icache.tags.total_refs           740207701                       # Total number of references to valid blocks.
system.cpu.icache.tags.sampled_refs               546                       # Sample count of references to valid blocks.
system.cpu.icache.tags.avg_refs          1355691.760073                       # Average number of references to valid blocks.
system.cpu.icache.tags.warmup_cycle                 0                       # Cycle when the warmup percentage was hit.
system.cpu.icache.tags.occ_blocks::cpu.inst   495.608663                       # Average occupied blocks per requestor
system.cpu.icache.tags.occ_percent::cpu.inst     0.483993                       # Average percentage of cache occupancy
system.cpu.icache.tags.occ_percent::total     0.483993                       # Average percentage of cache occupancy
system.cpu.icache.tags.occ_task_id_blocks::1024          544                       # Occupied blocks per task id
system.cpu.icache.tags.age_task_id_blocks_1024::4          544                       # Occupied blocks per task id
system.cpu.icache.tags.occ_task_id_percent::1024     0.531250                       # Percentage of cache occupancy per task id
system.cpu.icache.tags.tag_accesses        5921666522                       # Number of tag accesses
system.cpu.icache.tags.data_accesses       5921666522                       # Number of data accesses
system.cpu.icache.pwrStateResidencyTicks::UNDEFINED 1580222893500                       # Cumulative time (in ticks) in various power states
system.cpu.icache.ReadReq_hits::cpu.inst    740207701                       # number of ReadReq hits
system.cpu.icache.ReadReq_hits::total       740207701                       # number of ReadReq hits
system.cpu.icache.demand_hits::cpu.inst     740207701                       # number of demand (read+write) hits
system.cpu.icache.demand_hits::total        740207701                       # number of demand (read+write) hits
system.cpu.icache.overall_hits::cpu.inst    740207701                       # number of overall hits
system.cpu.icache.overall_hits::total       740207701                       # number of overall hits
system.cpu.icache.ReadReq_misses::cpu.inst          546                       # number of ReadReq misses
system.cpu.icache.ReadReq_misses::total           546                       # number of ReadReq misses
system.cpu.icache.demand_misses::cpu.inst          546                       # number of demand (read+write) misses
system.cpu.icache.demand_misses::total            546                       # number of demand (read+write) misses
system.cpu.icache.overall_misses::cpu.inst          546                       # number of overall misses
system.cpu.icache.overall_misses::total           546                       # number of overall misses
system.cpu.icache.ReadReq_miss_latency::cpu.inst     46890000                       # number of ReadReq miss cycles
system.cpu.icache.ReadReq_miss_latency::total     46890000                       # number of ReadReq miss cycles
system.cpu.icache.demand_miss_latency::cpu.inst     46890000                       # number of demand (read+write) miss cycles
system.cpu.icache.demand_miss_latency::total     46890000                       # number of demand (read+write) miss cycles
system.cpu.icache.overall_miss_latency::cpu.inst     46890000                       # number of overall miss cycles
system.cpu.icache.overall_miss_latency::total     46890000                       # number of overall miss cycles
system.cpu.icache.ReadReq_accesses::cpu.inst    740208247                       # number of ReadReq accesses(hits+misses)
system.cpu.icache.ReadReq_accesses::total    740208247                       # number of ReadReq accesses(hits+misses)
system.cpu.icache.demand_accesses::cpu.inst    740208247                       # number of demand (read+write) accesses
system.cpu.icache.demand_accesses::total    740208247                       # number of demand (read+write) accesses
system.cpu.icache.overall_accesses::cpu.inst    740208247                       # number of overall (read+write) accesses
system.cpu.icache.overall_accesses::total    740208247                       # number of overall (read+write) accesses
system.cpu.icache.ReadReq_miss_rate::cpu.inst     0.000001                       # miss rate for ReadReq accesses
system.cpu.icache.ReadReq_miss_rate::total     0.000001                       # miss rate for ReadReq accesses
system.cpu.icache.demand_miss_rate::cpu.inst     0.000001                       # miss rate for demand accesses
system.cpu.icache.demand_miss_rate::total     0.000001                       # miss rate for demand accesses
system.cpu.icache.overall_miss_rate::cpu.inst     0.000001                       # miss rate for overall accesses
system.cpu.icache.overall_miss_rate::total     0.000001                       # miss rate for overall accesses
system.cpu.icache.ReadReq_avg_miss_latency::cpu.inst 85879.120879                       # average ReadReq miss latency
system.cpu.icache.ReadReq_avg_miss_latency::total 85879.120879                       # average ReadReq miss latency
system.cpu.icache.demand_avg_miss_latency::cpu.inst 85879.120879                       # average overall miss latency
system.cpu.icache.demand_avg_miss_latency::total 85879.120879                       # average overall miss latency
system.cpu.icache.overall_avg_miss_latency::cpu.inst 85879.120879                       # average overall miss latency
system.cpu.icache.overall_avg_miss_latency::total 85879.120879                       # average overall miss latency
system.cpu.icache.blocked_cycles::no_mshrs            0                       # number of cycles access was blocked
system.cpu.icache.blocked_cycles::no_targets            0                       # number of cycles access was blocked
system.cpu.icache.blocked::no_mshrs                 0                       # number of cycles access was blocked
system.cpu.icache.blocked::no_targets               0                       # number of cycles access was blocked
system.cpu.icache.avg_blocked_cycles::no_mshrs          nan                       # average number of cycles each access was blocked
system.cpu.icache.avg_blocked_cycles::no_targets          nan                       # average number of cycles each access was blocked
system.cpu.icache.writebacks::writebacks            2                       # number of writebacks
system.cpu.icache.writebacks::total                 2                       # number of writebacks
system.cpu.icache.ReadReq_mshr_misses::cpu.inst          546                       # number of ReadReq MSHR misses
system.cpu.icache.ReadReq_mshr_misses::total          546                       # number of ReadReq MSHR misses
system.cpu.icache.demand_mshr_misses::cpu.inst          546                       # number of demand (read+write) MSHR misses
system.cpu.icache.demand_mshr_misses::total          546                       # number of demand (read+write) MSHR misses
system.cpu.icache.overall_mshr_misses::cpu.inst          546                       # number of overall MSHR misses
system.cpu.icache.overall_mshr_misses::total          546                       # number of overall MSHR misses
system.cpu.icache.ReadReq_mshr_miss_latency::cpu.inst     46344000                       # number of ReadReq MSHR miss cycles
system.cpu.icache.ReadReq_mshr_miss_latency::total     46344000                       # number of ReadReq MSHR miss cycles
system.cpu.icache.demand_mshr_miss_latency::cpu.inst     46344000                       # number of demand (read+write) MSHR miss cycles
system.cpu.icache.demand_mshr_miss_latency::total     46344000                       # number of demand (read+write) MSHR miss cycles
system.cpu.icache.overall_mshr_miss_latency::cpu.inst     46344000                       # number of overall MSHR miss cycles
system.cpu.icache.overall_mshr_miss_latency::total     46344000                       # number of overall MSHR miss cycles
system.cpu.icache.ReadReq_mshr_miss_rate::cpu.inst     0.000001                       # mshr miss rate for ReadReq accesses
system.cpu.icache.ReadReq_mshr_miss_rate::total     0.000001                       # mshr miss rate for ReadReq accesses
system.cpu.icache.demand_mshr_miss_rate::cpu.inst     0.000001                       # mshr miss rate for demand accesses
system.cpu.icache.demand_mshr_miss_rate::total     0.000001                       # mshr miss rate for demand accesses
system.cpu.icache.overall_mshr_miss_rate::cpu.inst     0.000001                       # mshr miss rate for overall accesses
system.cpu.icache.overall_mshr_miss_rate::total     0.000001                       # mshr miss rate for overall accesses
system.cpu.icache.ReadReq_avg_mshr_miss_latency::cpu.inst 84879.120879                       # average ReadReq mshr miss latency
system.cpu.icache.ReadReq_avg_mshr_miss_latency::total 84879.120879                       # average ReadReq mshr miss latency
system.cpu.icache.demand_avg_mshr_miss_latency::cpu.inst 84879.120879                       # average overall mshr miss latency
system.cpu.icache.demand_avg_mshr_miss_latency::total 84879.120879                       # average overall mshr miss latency
system.cpu.icache.overall_avg_mshr_miss_latency::cpu.inst 84879.120879                       # average overall mshr miss latency
system.cpu.icache.overall_avg_mshr_miss_latency::total 84879.120879                       # average overall mshr miss latency
system.cpu.itb_walker_cache.tags.pwrStateResidencyTicks::UNDEFINED 1580222893500                       # Cumulative time (in ticks) in various power states
system.cpu.itb_walker_cache.tags.replacements            0                       # number of replacements
system.cpu.itb_walker_cache.tags.tagsinuse            0                       # Cycle average of tags in use
system.cpu.itb_walker_cache.tags.total_refs            0                       # Total number of references to valid blocks.
system.cpu.itb_walker_cache.tags.sampled_refs            0                       # Sample count of references to valid blocks.
system.cpu.itb_walker_cache.tags.avg_refs          nan                       # Average number of references to valid blocks.
system.cpu.itb_walker_cache.tags.warmup_cycle            0                       # Cycle when the warmup percentage was hit.
system.cpu.itb_walker_cache.tags.tag_accesses            0                       # Number of tag accesses
system.cpu.itb_walker_cache.tags.data_accesses            0                       # Number of data accesses
system.cpu.itb_walker_cache.pwrStateResidencyTicks::UNDEFINED 1580222893500                       # Cumulative time (in ticks) in various power states
system.cpu.itb_walker_cache.blocked_cycles::no_mshrs            0                       # number of cycles access was blocked
system.cpu.itb_walker_cache.blocked_cycles::no_targets            0                       # number of cycles access was blocked
system.cpu.itb_walker_cache.blocked::no_mshrs            0                       # number of cycles access was blocked
system.cpu.itb_walker_cache.blocked::no_targets            0                       # number of cycles access was blocked
system.cpu.itb_walker_cache.avg_blocked_cycles::no_mshrs          nan                       # average number of cycles each access was blocked
system.cpu.itb_walker_cache.avg_blocked_cycles::no_targets          nan                       # average number of cycles each access was blocked
system.l2.tags.pwrStateResidencyTicks::UNDEFINED 1580222893500                       # Cumulative time (in ticks) in various power states
system.l2.tags.replacements                   7139743                       # number of replacements
system.l2.tags.tagsinuse                  8187.868364                       # Cycle average of tags in use
system.l2.tags.total_refs                     7178046                       # Total number of references to valid blocks.
system.l2.tags.sampled_refs                   7147935                       # Sample count of references to valid blocks.
system.l2.tags.avg_refs                      1.004213                       # Average number of references to valid blocks.
system.l2.tags.warmup_cycle                1772478000                       # Cycle when the warmup percentage was hit.
system.l2.tags.occ_blocks::writebacks        0.008626                       # Average occupied blocks per requestor
system.l2.tags.occ_blocks::cpu.inst          0.954769                       # Average occupied blocks per requestor
system.l2.tags.occ_blocks::cpu.data       8186.904969                       # Average occupied blocks per requestor
system.l2.tags.occ_percent::writebacks       0.000001                       # Average percentage of cache occupancy
system.l2.tags.occ_percent::cpu.inst         0.000117                       # Average percentage of cache occupancy
system.l2.tags.occ_percent::cpu.data         0.999378                       # Average percentage of cache occupancy
system.l2.tags.occ_percent::total            0.999496                       # Average percentage of cache occupancy
system.l2.tags.occ_task_id_blocks::1024          8192                       # Occupied blocks per task id
system.l2.tags.age_task_id_blocks_1024::2           45                       # Occupied blocks per task id
system.l2.tags.age_task_id_blocks_1024::3         5998                       # Occupied blocks per task id
system.l2.tags.age_task_id_blocks_1024::4         2149                       # Occupied blocks per task id
system.l2.tags.occ_task_id_percent::1024            1                       # Percentage of cache occupancy per task id
system.l2.tags.tag_accesses                 121755783                       # Number of tag accesses
system.l2.tags.data_accesses                121755783                       # Number of data accesses
system.l2.pwrStateResidencyTicks::UNDEFINED 1580222893500                       # Cumulative time (in ticks) in various power states
system.l2.WritebackDirty_hits::writebacks      7146412                       # number of WritebackDirty hits
system.l2.WritebackDirty_hits::total          7146412                       # number of WritebackDirty hits
system.l2.WritebackClean_hits::writebacks            2                       # number of WritebackClean hits
system.l2.WritebackClean_hits::total                2                       # number of WritebackClean hits
system.l2.ReadExReq_hits::cpu.data                120                       # number of ReadExReq hits
system.l2.ReadExReq_hits::total                   120                       # number of ReadExReq hits
system.l2.ReadCleanReq_hits::cpu.inst               1                       # number of ReadCleanReq hits
system.l2.ReadCleanReq_hits::total                  1                       # number of ReadCleanReq hits
system.l2.ReadSharedReq_hits::cpu.data          15720                       # number of ReadSharedReq hits
system.l2.ReadSharedReq_hits::total             15720                       # number of ReadSharedReq hits
system.l2.demand_hits::cpu.inst                     1                       # number of demand (read+write) hits
system.l2.demand_hits::cpu.data                 15840                       # number of demand (read+write) hits
system.l2.demand_hits::total                    15841                       # number of demand (read+write) hits
system.l2.overall_hits::cpu.inst                    1                       # number of overall hits
system.l2.overall_hits::cpu.data                15840                       # number of overall hits
system.l2.overall_hits::total                   15841                       # number of overall hits
system.l2.ReadExReq_misses::cpu.data          6700133                       # number of ReadExReq misses
system.l2.ReadExReq_misses::total             6700133                       # number of ReadExReq misses
system.l2.ReadCleanReq_misses::cpu.inst           545                       # number of ReadCleanReq misses
system.l2.ReadCleanReq_misses::total              545                       # number of ReadCleanReq misses
system.l2.ReadSharedReq_misses::cpu.data       447256                       # number of ReadSharedReq misses
system.l2.ReadSharedReq_misses::total          447256                       # number of ReadSharedReq misses
system.l2.demand_misses::cpu.inst                 545                       # number of demand (read+write) misses
system.l2.demand_misses::cpu.data             7147389                       # number of demand (read+write) misses
system.l2.demand_misses::total                7147934                       # number of demand (read+write) misses
system.l2.overall_misses::cpu.inst                545                       # number of overall misses
system.l2.overall_misses::cpu.data            7147389                       # number of overall misses
system.l2.overall_misses::total               7147934                       # number of overall misses
system.l2.ReadExReq_miss_latency::cpu.data 574762258000                       # number of ReadExReq miss cycles
system.l2.ReadExReq_miss_latency::total  574762258000                       # number of ReadExReq miss cycles
system.l2.ReadCleanReq_miss_latency::cpu.inst     45511500                       # number of ReadCleanReq miss cycles
system.l2.ReadCleanReq_miss_latency::total     45511500                       # number of ReadCleanReq miss cycles
system.l2.ReadSharedReq_miss_latency::cpu.data  38152492500                       # number of ReadSharedReq miss cycles
system.l2.ReadSharedReq_miss_latency::total  38152492500                       # number of ReadSharedReq miss cycles
system.l2.demand_miss_latency::cpu.inst      45511500                       # number of demand (read+write) miss cycles
system.l2.demand_miss_latency::cpu.data  612914750500                       # number of demand (read+write) miss cycles
system.l2.demand_miss_latency::total     612960262000                       # number of demand (read+write) miss cycles
system.l2.overall_miss_latency::cpu.inst     45511500                       # number of overall miss cycles
system.l2.overall_miss_latency::cpu.data 612914750500                       # number of overall miss cycles
system.l2.overall_miss_latency::total    612960262000                       # number of overall miss cycles
system.l2.WritebackDirty_accesses::writebacks      7146412                       # number of WritebackDirty accesses(hits+misses)
system.l2.WritebackDirty_accesses::total      7146412                       # number of WritebackDirty accesses(hits+misses)
system.l2.WritebackClean_accesses::writebacks            2                       # number of WritebackClean accesses(hits+misses)
system.l2.WritebackClean_accesses::total            2                       # number of WritebackClean accesses(hits+misses)
system.l2.ReadExReq_accesses::cpu.data        6700253                       # number of ReadExReq accesses(hits+misses)
system.l2.ReadExReq_accesses::total           6700253                       # number of ReadExReq accesses(hits+misses)
system.l2.ReadCleanReq_accesses::cpu.inst          546                       # number of ReadCleanReq accesses(hits+misses)
system.l2.ReadCleanReq_accesses::total            546                       # number of ReadCleanReq accesses(hits+misses)
system.l2.ReadSharedReq_accesses::cpu.data       462976                       # number of ReadSharedReq accesses(hits+misses)
system.l2.ReadSharedReq_accesses::total        462976                       # number of ReadSharedReq accesses(hits+misses)
system.l2.demand_accesses::cpu.inst               546                       # number of demand (read+write) accesses
system.l2.demand_accesses::cpu.data           7163229                       # number of demand (read+write) accesses
system.l2.demand_accesses::total              7163775                       # number of demand (read+write) accesses
system.l2.overall_accesses::cpu.inst              546                       # number of overall (read+write) accesses
system.l2.overall_accesses::cpu.data          7163229                       # number of overall (read+write) accesses
system.l2.overall_accesses::total             7163775                       # number of overall (read+write) accesses
system.l2.ReadExReq_miss_rate::cpu.data      0.999982                       # miss rate for ReadExReq accesses
system.l2.ReadExReq_miss_rate::total         0.999982                       # miss rate for ReadExReq accesses
system.l2.ReadCleanReq_miss_rate::cpu.inst     0.998168                       # miss rate for ReadCleanReq accesses
system.l2.ReadCleanReq_miss_rate::total      0.998168                       # miss rate for ReadCleanReq accesses
system.l2.ReadSharedReq_miss_rate::cpu.data     0.966046                       # miss rate for ReadSharedReq accesses
system.l2.ReadSharedReq_miss_rate::total     0.966046                       # miss rate for ReadSharedReq accesses
system.l2.demand_miss_rate::cpu.inst         0.998168                       # miss rate for demand accesses
system.l2.demand_miss_rate::cpu.data         0.997789                       # miss rate for demand accesses
system.l2.demand_miss_rate::total            0.997789                       # miss rate for demand accesses
system.l2.overall_miss_rate::cpu.inst        0.998168                       # miss rate for overall accesses
system.l2.overall_miss_rate::cpu.data        0.997789                       # miss rate for overall accesses
system.l2.overall_miss_rate::total           0.997789                       # miss rate for overall accesses
system.l2.ReadExReq_avg_miss_latency::cpu.data 85783.708771                       # average ReadExReq miss latency
system.l2.ReadExReq_avg_miss_latency::total 85783.708771                       # average ReadExReq miss latency
system.l2.ReadCleanReq_avg_miss_latency::cpu.inst 83507.339450                       # average ReadCleanReq miss latency
system.l2.ReadCleanReq_avg_miss_latency::total 83507.339450                       # average ReadCleanReq miss latency
system.l2.ReadSharedReq_avg_miss_latency::cpu.data 85303.478321                       # average ReadSharedReq miss latency
system.l2.ReadSharedReq_avg_miss_latency::total 85303.478321                       # average ReadSharedReq miss latency
system.l2.demand_avg_miss_latency::cpu.inst 83507.339450                       # average overall miss latency
system.l2.demand_avg_miss_latency::cpu.data 85753.657804                       # average overall miss latency
system.l2.demand_avg_miss_latency::total 85753.486532                       # average overall miss latency
system.l2.overall_avg_miss_latency::cpu.inst 83507.339450                       # average overall miss latency
system.l2.overall_avg_miss_latency::cpu.data 85753.657804                       # average overall miss latency
system.l2.overall_avg_miss_latency::total 85753.486532                       # average overall miss latency
system.l2.blocked_cycles::no_mshrs                  0                       # number of cycles access was blocked
system.l2.blocked_cycles::no_targets                0                       # number of cycles access was blocked
system.l2.blocked::no_mshrs                         0                       # number of cycles access was blocked
system.l2.blocked::no_targets                       0                       # number of cycles access was blocked
system.l2.avg_blocked_cycles::no_mshrs            nan                       # average number of cycles each access was blocked
system.l2.avg_blocked_cycles::no_targets          nan                       # average number of cycles each access was blocked
system.l2.writebacks::writebacks              7139064                       # number of writebacks
system.l2.writebacks::total                   7139064                       # number of writebacks
system.l2.ReadExReq_mshr_misses::cpu.data      6700133                       # number of ReadExReq MSHR misses
system.l2.ReadExReq_mshr_misses::total        6700133                       # number of ReadExReq MSHR misses
system.l2.ReadCleanReq_mshr_misses::cpu.inst          545                       # number of ReadCleanReq MSHR misses
system.l2.ReadCleanReq_mshr_misses::total          545                       # number of ReadCleanReq MSHR misses
system.l2.ReadSharedReq_mshr_misses::cpu.data       447256                       # number of ReadSharedReq MSHR misses
system.l2.ReadSharedReq_mshr_misses::total       447256                       # number of ReadSharedReq MSHR misses
system.l2.demand_mshr_misses::cpu.inst            545                       # number of demand (read+write) MSHR misses
system.l2.demand_mshr_misses::cpu.data        7147389                       # number of demand (read+write) MSHR misses
system.l2.demand_mshr_misses::total           7147934                       # number of demand (read+write) MSHR misses
system.l2.overall_mshr_misses::cpu.inst           545                       # number of overall MSHR misses
system.l2.overall_mshr_misses::cpu.data       7147389                       # number of overall MSHR misses
system.l2.overall_mshr_misses::total          7147934                       # number of overall MSHR misses
system.l2.ReadExReq_mshr_miss_latency::cpu.data 507760928000                       # number of ReadExReq MSHR miss cycles
system.l2.ReadExReq_mshr_miss_latency::total 507760928000                       # number of ReadExReq MSHR miss cycles
system.l2.ReadCleanReq_mshr_miss_latency::cpu.inst     40061500                       # number of ReadCleanReq MSHR miss cycles
system.l2.ReadCleanReq_mshr_miss_latency::total     40061500                       # number of ReadCleanReq MSHR miss cycles
system.l2.ReadSharedReq_mshr_miss_latency::cpu.data  33679932500                       # number of ReadSharedReq MSHR miss cycles
system.l2.ReadSharedReq_mshr_miss_latency::total  33679932500                       # number of ReadSharedReq MSHR miss cycles
system.l2.demand_mshr_miss_latency::cpu.inst     40061500                       # number of demand (read+write) MSHR miss cycles
system.l2.demand_mshr_miss_latency::cpu.data 541440860500                       # number of demand (read+write) MSHR miss cycles
system.l2.demand_mshr_miss_latency::total 541480922000                       # number of demand (read+write) MSHR miss cycles
system.l2.overall_mshr_miss_latency::cpu.inst     40061500                       # number of overall MSHR miss cycles
system.l2.overall_mshr_miss_latency::cpu.data 541440860500                       # number of overall MSHR miss cycles
system.l2.overall_mshr_miss_latency::total 541480922000                       # number of overall MSHR miss cycles
system.l2.ReadExReq_mshr_miss_rate::cpu.data     0.999982                       # mshr miss rate for ReadExReq accesses
system.l2.ReadExReq_mshr_miss_rate::total     0.999982                       # mshr miss rate for ReadExReq accesses
system.l2.ReadCleanReq_mshr_miss_rate::cpu.inst     0.998168                       # mshr miss rate for ReadCleanReq accesses
system.l2.ReadCleanReq_mshr_miss_rate::total     0.998168                       # mshr miss rate for ReadCleanReq accesses
system.l2.ReadSharedReq_mshr_miss_rate::cpu.data     0.966046                       # mshr miss rate for ReadSharedReq accesses
system.l2.ReadSharedReq_mshr_miss_rate::total     0.966046                       # mshr miss rate for ReadSharedReq accesses
system.l2.demand_mshr_miss_rate::cpu.inst     0.998168                       # mshr miss rate for demand accesses
system.l2.demand_mshr_miss_rate::cpu.data     0.997789                       # mshr miss rate for demand accesses
system.l2.demand_mshr_miss_rate::total       0.997789                       # mshr miss rate for demand accesses
system.l2.overall_mshr_miss_rate::cpu.inst     0.998168                       # mshr miss rate for overall accesses
system.l2.overall_mshr_miss_rate::cpu.data     0.997789                       # mshr miss rate for overall accesses
system.l2.overall_mshr_miss_rate::total      0.997789                       # mshr miss rate for overall accesses
system.l2.ReadExReq_avg_mshr_miss_latency::cpu.data 75783.708771                       # average ReadExReq mshr miss latency
system.l2.ReadExReq_avg_mshr_miss_latency::total 75783.708771                       # average ReadExReq mshr miss latency
system.l2.ReadCleanReq_avg_mshr_miss_latency::cpu.inst 73507.339450                       # average ReadCleanReq mshr miss latency
system.l2.ReadCleanReq_avg_mshr_miss_latency::total 73507.339450                       # average ReadCleanReq mshr miss latency
system.l2.ReadSharedReq_avg_mshr_miss_latency::cpu.data 75303.478321                       # average ReadSharedReq mshr miss latency
system.l2.ReadSharedReq_avg_mshr_miss_latency::total 75303.478321                       # average ReadSharedReq mshr miss latency
system.l2.demand_avg_mshr_miss_latency::cpu.inst 73507.339450                       # average overall mshr miss latency
system.l2.demand_avg_mshr_miss_latency::cpu.data 75753.657804                       # average overall mshr miss latency
system.l2.demand_avg_mshr_miss_latency::total 75753.486532                       # average overall mshr miss latency
system.l2.overall_avg_mshr_miss_latency::cpu.inst 73507.339450                       # average overall mshr miss latency
system.l2.overall_avg_mshr_miss_latency::cpu.data 75753.657804                       # average overall mshr miss latency
system.l2.overall_avg_mshr_miss_latency::total 75753.486532                       # average overall mshr miss latency
system.membus.snoop_filter.tot_requests      14287126                       # Total number of requests made to the snoop filter.
system.membus.snoop_filter.hit_single_requests      7139192                       # Number of requests hitting in the snoop filter with a single holder of the requested data.
system.membus.snoop_filter.hit_multi_requests            0                       # Number of requests hitting in the snoop filter with multiple (>1) holders of the requested data.
system.membus.snoop_filter.tot_snoops               0                       # Total number of snoops made to the snoop filter.
system.membus.snoop_filter.hit_single_snoops            0                       # Number of snoops hitting in the snoop filter with a single holder of the requested data.
system.membus.snoop_filter.hit_multi_snoops            0                       # Number of snoops hitting in the snoop filter with multiple (>1) holders of the requested data.
system.membus.pwrStateResidencyTicks::UNDEFINED 1580222893500                       # Cumulative time (in ticks) in various power states
system.membus.trans_dist::ReadResp             447801                       # Transaction distribution
system.membus.trans_dist::WritebackDirty      7139064                       # Transaction distribution
system.membus.trans_dist::CleanEvict              128                       # Transaction distribution
system.membus.trans_dist::ReadExReq           6700133                       # Transaction distribution
system.membus.trans_dist::ReadExResp          6700133                       # Transaction distribution
system.membus.trans_dist::ReadSharedReq        447801                       # Transaction distribution
system.membus.pkt_count_system.l2.mem_side::system.mem_ctrls.port     21435060                       # Packet count per connected master and slave (bytes)
system.membus.pkt_count_system.l2.mem_side::total     21435060                       # Packet count per connected master and slave (bytes)
system.membus.pkt_count::total               21435060                       # Packet count per connected master and slave (bytes)
system.membus.pkt_size_system.l2.mem_side::system.mem_ctrls.port    914367872                       # Cumulative packet size per connected master and slave (bytes)
system.membus.pkt_size_system.l2.mem_side::total    914367872                       # Cumulative packet size per connected master and slave (bytes)
system.membus.pkt_size::total               914367872                       # Cumulative packet size per connected master and slave (bytes)
system.membus.snoops                                0                       # Total snoops (count)
system.membus.snoopTraffic                          0                       # Total snoop traffic (bytes)
system.membus.snoop_fanout::samples           7147934                       # Request fanout histogram
system.membus.snoop_fanout::mean                    0                       # Request fanout histogram
system.membus.snoop_fanout::stdev                   0                       # Request fanout histogram
system.membus.snoop_fanout::underflows              0      0.00%      0.00% # Request fanout histogram
system.membus.snoop_fanout::0                 7147934    100.00%    100.00% # Request fanout histogram
system.membus.snoop_fanout::1                       0      0.00%    100.00% # Request fanout histogram
system.membus.snoop_fanout::overflows               0      0.00%    100.00% # Request fanout histogram
system.membus.snoop_fanout::min_value               0                       # Request fanout histogram
system.membus.snoop_fanout::max_value               0                       # Request fanout histogram
system.membus.snoop_fanout::total             7147934                       # Request fanout histogram
system.membus.reqLayer2.occupancy         42843386000                       # Layer occupancy (ticks)
system.membus.reqLayer2.utilization               2.7                       # Layer utilization (%)
system.membus.respLayer1.occupancy        37632389250                       # Layer occupancy (ticks)
system.membus.respLayer1.utilization              2.4                       # Layer utilization (%)
system.tol2bus.snoop_filter.tot_requests     14325982                       # Total number of requests made to the snoop filter.
system.tol2bus.snoop_filter.hit_single_requests      7162207                       # Number of requests hitting in the snoop filter with a single holder of the requested data.
system.tol2bus.snoop_filter.hit_multi_requests            1                       # Number of requests hitting in the snoop filter with multiple (>1) holders of the requested data.
system.tol2bus.snoop_filter.tot_snoops            551                       # Total number of snoops made to the snoop filter.
system.tol2bus.snoop_filter.hit_single_snoops          551                       # Number of snoops hitting in the snoop filter with a single holder of the requested data.
system.tol2bus.snoop_filter.hit_multi_snoops            0                       # Number of snoops hitting in the snoop filter with multiple (>1) holders of the requested data.
system.tol2bus.pwrStateResidencyTicks::UNDEFINED 1580222893500                       # Cumulative time (in ticks) in various power states
system.tol2bus.trans_dist::ReadResp            463522                       # Transaction distribution
system.tol2bus.trans_dist::WritebackDirty     14285476                       # Transaction distribution
system.tol2bus.trans_dist::WritebackClean            2                       # Transaction distribution
system.tol2bus.trans_dist::CleanEvict           16472                       # Transaction distribution
system.tol2bus.trans_dist::ReadExReq          6700253                       # Transaction distribution
system.tol2bus.trans_dist::ReadExResp         6700253                       # Transaction distribution
system.tol2bus.trans_dist::ReadCleanReq           546                       # Transaction distribution
system.tol2bus.trans_dist::ReadSharedReq       462976                       # Transaction distribution
system.tol2bus.pkt_count_system.cpu.icache.mem_side::system.l2.cpu_side         1094                       # Packet count per connected master and slave (bytes)
system.tol2bus.pkt_count_system.cpu.dcache.mem_side::system.l2.cpu_side     21488663                       # Packet count per connected master and slave (bytes)
system.tol2bus.pkt_count::total              21489757                       # Packet count per connected master and slave (bytes)
system.tol2bus.pkt_size_system.cpu.icache.mem_side::system.l2.cpu_side        35072                       # Cumulative packet size per connected master and slave (bytes)
system.tol2bus.pkt_size_system.cpu.dcache.mem_side::system.l2.cpu_side    915817024                       # Cumulative packet size per connected master and slave (bytes)
system.tol2bus.pkt_size::total              915852096                       # Cumulative packet size per connected master and slave (bytes)
system.tol2bus.snoops                         7139743                       # Total snoops (count)
system.tol2bus.snoopTraffic                 456900096                       # Total snoop traffic (bytes)
system.tol2bus.snoop_fanout::samples         14303518                       # Request fanout histogram
system.tol2bus.snoop_fanout::mean            0.000039                       # Request fanout histogram
system.tol2bus.snoop_fanout::stdev           0.006212                       # Request fanout histogram
system.tol2bus.snoop_fanout::underflows             0      0.00%      0.00% # Request fanout histogram
system.tol2bus.snoop_fanout::0               14302966    100.00%    100.00% # Request fanout histogram
system.tol2bus.snoop_fanout::1                    552      0.00%    100.00% # Request fanout histogram
system.tol2bus.snoop_fanout::2                      0      0.00%    100.00% # Request fanout histogram
system.tol2bus.snoop_fanout::3                      0      0.00%    100.00% # Request fanout histogram
system.tol2bus.snoop_fanout::4                      0      0.00%    100.00% # Request fanout histogram
system.tol2bus.snoop_fanout::overflows              0      0.00%    100.00% # Request fanout histogram
system.tol2bus.snoop_fanout::min_value              0                       # Request fanout histogram
system.tol2bus.snoop_fanout::max_value              1                       # Request fanout histogram
system.tol2bus.snoop_fanout::total           14303518                       # Request fanout histogram
system.tol2bus.reqLayer0.occupancy        14309405000                       # Layer occupancy (ticks)
system.tol2bus.reqLayer0.utilization              0.9                       # Layer utilization (%)
system.tol2bus.respLayer0.occupancy            819000                       # Layer occupancy (ticks)
system.tol2bus.respLayer0.utilization             0.0                       # Layer utilization (%)
system.tol2bus.respLayer1.occupancy       10744843500                       # Layer occupancy (ticks)
system.tol2bus.respLayer1.utilization             0.7                       # Layer utilization (%)

---------- End Simulation Statistics   ----------
