
---------- Begin Simulation Statistics ----------
sim_seconds                                  1.731375                       # Number of seconds simulated
sim_ticks                                1731375002500                       # Number of ticks simulated
final_tick                               1731375002500                       # Number of ticks from beginning of simulation (restored from checkpoints and never reset)
sim_freq                                 1000000000000                       # Frequency of simulated ticks
host_inst_rate                                 710265                       # Simulator instruction rate (inst/s)
host_op_rate                                  1169617                       # Simulator op (including micro ops) rate (op/s)
host_tick_rate                             2459468921                       # Simulator tick rate (ticks/s)
host_mem_usage                                 666212                       # Number of bytes of host memory used
host_seconds                                   703.96                       # Real time elapsed on the host
sim_insts                                   500000000                       # Number of instructions simulated
sim_ops                                     823366692                       # Number of ops (including micro ops) simulated
system.voltage_domain.voltage                       1                       # Voltage in Volts
system.clk_domain.clock                          1000                       # Clock period in ticks
system.mem_ctrls.pwrStateResidencyTicks::UNDEFINED 1731375002500                       # Cumulative time (in ticks) in various power states
system.mem_ctrls.bytes_read::cpu.inst          143680                       # Number of bytes read from this memory
system.mem_ctrls.bytes_read::cpu.data       536064576                       # Number of bytes read from this memory
system.mem_ctrls.bytes_read::total          536208256                       # Number of bytes read from this memory
system.mem_ctrls.bytes_inst_read::cpu.inst       143680                       # Number of instructions bytes read from this memory
system.mem_ctrls.bytes_inst_read::total        143680                       # Number of instructions bytes read from this memory
system.mem_ctrls.bytes_written::writebacks    534135872                       # Number of bytes written to this memory
system.mem_ctrls.bytes_written::total       534135872                       # Number of bytes written to this memory
system.mem_ctrls.num_reads::cpu.inst             2245                       # Number of read requests responded to by this memory
system.mem_ctrls.num_reads::cpu.data          8376009                       # Number of read requests responded to by this memory
system.mem_ctrls.num_reads::total             8378254                       # Number of read requests responded to by this memory
system.mem_ctrls.num_writes::writebacks       8345873                       # Number of write requests responded to by this memory
system.mem_ctrls.num_writes::total            8345873                       # Number of write requests responded to by this memory
system.mem_ctrls.bw_read::cpu.inst              82986                       # Total read bandwidth from this memory (bytes/s)
system.mem_ctrls.bw_read::cpu.data          309617833                       # Total read bandwidth from this memory (bytes/s)
system.mem_ctrls.bw_read::total             309700819                       # Total read bandwidth from this memory (bytes/s)
system.mem_ctrls.bw_inst_read::cpu.inst         82986                       # Instruction read bandwidth from this memory (bytes/s)
system.mem_ctrls.bw_inst_read::total            82986                       # Instruction read bandwidth from this memory (bytes/s)
system.mem_ctrls.bw_write::writebacks       308503860                       # Write bandwidth from this memory (bytes/s)
system.mem_ctrls.bw_write::total            308503860                       # Write bandwidth from this memory (bytes/s)
system.mem_ctrls.bw_total::writebacks       308503860                       # Total bandwidth to/from this memory (bytes/s)
system.mem_ctrls.bw_total::cpu.inst             82986                       # Total bandwidth to/from this memory (bytes/s)
system.mem_ctrls.bw_total::cpu.data         309617833                       # Total bandwidth to/from this memory (bytes/s)
system.mem_ctrls.bw_total::total            618204679                       # Total bandwidth to/from this memory (bytes/s)
system.mem_ctrls.readReqs                     8378254                       # Number of read requests accepted
system.mem_ctrls.writeReqs                    8345873                       # Number of write requests accepted
system.mem_ctrls.readBursts                   8378254                       # Number of DRAM read bursts, including those serviced by the write queue
system.mem_ctrls.writeBursts                  8345873                       # Number of DRAM write bursts, including those merged in the write queue
system.mem_ctrls.bytesReadDRAM              536203904                       # Total number of bytes read from DRAM
system.mem_ctrls.bytesReadWrQ                    4352                       # Total number of bytes read from write queue
system.mem_ctrls.bytesWritten               534134848                       # Total number of bytes written to DRAM
system.mem_ctrls.bytesReadSys               536208256                       # Total read bytes from the system interface side
system.mem_ctrls.bytesWrittenSys            534135872                       # Total written bytes from the system interface side
system.mem_ctrls.servicedByWrQ                     68                       # Number of DRAM read bursts serviced by the write queue
system.mem_ctrls.mergedWrBursts                     0                       # Number of DRAM write bursts merged with an existing one
system.mem_ctrls.neitherReadNorWriteReqs            0                       # Number of requests that are neither read nor write
system.mem_ctrls.perBankRdBursts::0            523420                       # Per bank write bursts
system.mem_ctrls.perBankRdBursts::1            523186                       # Per bank write bursts
system.mem_ctrls.perBankRdBursts::2            523376                       # Per bank write bursts
system.mem_ctrls.perBankRdBursts::3            523956                       # Per bank write bursts
system.mem_ctrls.perBankRdBursts::4            523799                       # Per bank write bursts
system.mem_ctrls.perBankRdBursts::5            523742                       # Per bank write bursts
system.mem_ctrls.perBankRdBursts::6            523585                       # Per bank write bursts
system.mem_ctrls.perBankRdBursts::7            523621                       # Per bank write bursts
system.mem_ctrls.perBankRdBursts::8            523173                       # Per bank write bursts
system.mem_ctrls.perBankRdBursts::9            523496                       # Per bank write bursts
system.mem_ctrls.perBankRdBursts::10           523617                       # Per bank write bursts
system.mem_ctrls.perBankRdBursts::11           524170                       # Per bank write bursts
system.mem_ctrls.perBankRdBursts::12           523943                       # Per bank write bursts
system.mem_ctrls.perBankRdBursts::13           523800                       # Per bank write bursts
system.mem_ctrls.perBankRdBursts::14           523604                       # Per bank write bursts
system.mem_ctrls.perBankRdBursts::15           523698                       # Per bank write bursts
system.mem_ctrls.perBankWrBursts::0            521537                       # Per bank write bursts
system.mem_ctrls.perBankWrBursts::1            521332                       # Per bank write bursts
system.mem_ctrls.perBankWrBursts::2            521571                       # Per bank write bursts
system.mem_ctrls.perBankWrBursts::3            521856                       # Per bank write bursts
system.mem_ctrls.perBankWrBursts::4            521611                       # Per bank write bursts
system.mem_ctrls.perBankWrBursts::5            521736                       # Per bank write bursts
system.mem_ctrls.perBankWrBursts::6            521474                       # Per bank write bursts
system.mem_ctrls.perBankWrBursts::7            521549                       # Per bank write bursts
system.mem_ctrls.perBankWrBursts::8            521321                       # Per bank write bursts
system.mem_ctrls.perBankWrBursts::9            521457                       # Per bank write bursts
system.mem_ctrls.perBankWrBursts::10           521576                       # Per bank write bursts
system.mem_ctrls.perBankWrBursts::11           521806                       # Per bank write bursts
system.mem_ctrls.perBankWrBursts::12           521836                       # Per bank write bursts
system.mem_ctrls.perBankWrBursts::13           521836                       # Per bank write bursts
system.mem_ctrls.perBankWrBursts::14           521688                       # Per bank write bursts
system.mem_ctrls.perBankWrBursts::15           521671                       # Per bank write bursts
system.mem_ctrls.numRdRetry                         0                       # Number of times read queue was full causing retry
system.mem_ctrls.numWrRetry                         0                       # Number of times write queue was full causing retry
system.mem_ctrls.totGap                  1731351720500                       # Total gap between requests
system.mem_ctrls.readPktSize::0                     0                       # Read request sizes (log2)
system.mem_ctrls.readPktSize::1                     0                       # Read request sizes (log2)
system.mem_ctrls.readPktSize::2                     0                       # Read request sizes (log2)
system.mem_ctrls.readPktSize::3                     0                       # Read request sizes (log2)
system.mem_ctrls.readPktSize::4                     0                       # Read request sizes (log2)
system.mem_ctrls.readPktSize::5                     0                       # Read request sizes (log2)
system.mem_ctrls.readPktSize::6               8378254                       # Read request sizes (log2)
system.mem_ctrls.writePktSize::0                    0                       # Write request sizes (log2)
system.mem_ctrls.writePktSize::1                    0                       # Write request sizes (log2)
system.mem_ctrls.writePktSize::2                    0                       # Write request sizes (log2)
system.mem_ctrls.writePktSize::3                    0                       # Write request sizes (log2)
system.mem_ctrls.writePktSize::4                    0                       # Write request sizes (log2)
system.mem_ctrls.writePktSize::5                    0                       # Write request sizes (log2)
system.mem_ctrls.writePktSize::6              8345873                       # Write request sizes (log2)
system.mem_ctrls.rdQLenPdf::0                 8378185                       # What read queue length does an incoming req see
system.mem_ctrls.rdQLenPdf::1                       1                       # What read queue length does an incoming req see
system.mem_ctrls.rdQLenPdf::2                       0                       # What read queue length does an incoming req see
system.mem_ctrls.rdQLenPdf::3                       0                       # What read queue length does an incoming req see
system.mem_ctrls.rdQLenPdf::4                       0                       # What read queue length does an incoming req see
system.mem_ctrls.rdQLenPdf::5                       0                       # What read queue length does an incoming req see
system.mem_ctrls.rdQLenPdf::6                       0                       # What read queue length does an incoming req see
system.mem_ctrls.rdQLenPdf::7                       0                       # What read queue length does an incoming req see
system.mem_ctrls.rdQLenPdf::8                       0                       # What read queue length does an incoming req see
system.mem_ctrls.rdQLenPdf::9                       0                       # What read queue length does an incoming req see
system.mem_ctrls.rdQLenPdf::10                      0                       # What read queue length does an incoming req see
system.mem_ctrls.rdQLenPdf::11                      0                       # What read queue length does an incoming req see
system.mem_ctrls.rdQLenPdf::12                      0                       # What read queue length does an incoming req see
system.mem_ctrls.rdQLenPdf::13                      0                       # What read queue length does an incoming req see
system.mem_ctrls.rdQLenPdf::14                      0                       # What read queue length does an incoming req see
system.mem_ctrls.rdQLenPdf::15                      0                       # What read queue length does an incoming req see
system.mem_ctrls.rdQLenPdf::16                      0                       # What read queue length does an incoming req see
system.mem_ctrls.rdQLenPdf::17                      0                       # What read queue length does an incoming req see
system.mem_ctrls.rdQLenPdf::18                      0                       # What read queue length does an incoming req see
system.mem_ctrls.rdQLenPdf::19                      0                       # What read queue length does an incoming req see
system.mem_ctrls.rdQLenPdf::20                      0                       # What read queue length does an incoming req see
system.mem_ctrls.rdQLenPdf::21                      0                       # What read queue length does an incoming req see
system.mem_ctrls.rdQLenPdf::22                      0                       # What read queue length does an incoming req see
system.mem_ctrls.rdQLenPdf::23                      0                       # What read queue length does an incoming req see
system.mem_ctrls.rdQLenPdf::24                      0                       # What read queue length does an incoming req see
system.mem_ctrls.rdQLenPdf::25                      0                       # What read queue length does an incoming req see
system.mem_ctrls.rdQLenPdf::26                      0                       # What read queue length does an incoming req see
system.mem_ctrls.rdQLenPdf::27                      0                       # What read queue length does an incoming req see
system.mem_ctrls.rdQLenPdf::28                      0                       # What read queue length does an incoming req see
system.mem_ctrls.rdQLenPdf::29                      0                       # What read queue length does an incoming req see
system.mem_ctrls.rdQLenPdf::30                      0                       # What read queue length does an incoming req see
system.mem_ctrls.rdQLenPdf::31                      0                       # What read queue length does an incoming req see
system.mem_ctrls.wrQLenPdf::0                       1                       # What write queue length does an incoming req see
system.mem_ctrls.wrQLenPdf::1                       1                       # What write queue length does an incoming req see
system.mem_ctrls.wrQLenPdf::2                       1                       # What write queue length does an incoming req see
system.mem_ctrls.wrQLenPdf::3                       1                       # What write queue length does an incoming req see
system.mem_ctrls.wrQLenPdf::4                       1                       # What write queue length does an incoming req see
system.mem_ctrls.wrQLenPdf::5                       1                       # What write queue length does an incoming req see
system.mem_ctrls.wrQLenPdf::6                       1                       # What write queue length does an incoming req see
system.mem_ctrls.wrQLenPdf::7                       1                       # What write queue length does an incoming req see
system.mem_ctrls.wrQLenPdf::8                       1                       # What write queue length does an incoming req see
system.mem_ctrls.wrQLenPdf::9                       1                       # What write queue length does an incoming req see
system.mem_ctrls.wrQLenPdf::10                      1                       # What write queue length does an incoming req see
system.mem_ctrls.wrQLenPdf::11                      1                       # What write queue length does an incoming req see
system.mem_ctrls.wrQLenPdf::12                      1                       # What write queue length does an incoming req see
system.mem_ctrls.wrQLenPdf::13                      1                       # What write queue length does an incoming req see
system.mem_ctrls.wrQLenPdf::14                      1                       # What write queue length does an incoming req see
system.mem_ctrls.wrQLenPdf::15                   4982                       # What write queue length does an incoming req see
system.mem_ctrls.wrQLenPdf::16                   5023                       # What write queue length does an incoming req see
system.mem_ctrls.wrQLenPdf::17                 520970                       # What write queue length does an incoming req see
system.mem_ctrls.wrQLenPdf::18                 520991                       # What write queue length does an incoming req see
system.mem_ctrls.wrQLenPdf::19                 520990                       # What write queue length does an incoming req see
system.mem_ctrls.wrQLenPdf::20                 520990                       # What write queue length does an incoming req see
system.mem_ctrls.wrQLenPdf::21                 520990                       # What write queue length does an incoming req see
system.mem_ctrls.wrQLenPdf::22                 520990                       # What write queue length does an incoming req see
system.mem_ctrls.wrQLenPdf::23                 520990                       # What write queue length does an incoming req see
system.mem_ctrls.wrQLenPdf::24                 520990                       # What write queue length does an incoming req see
system.mem_ctrls.wrQLenPdf::25                 520990                       # What write queue length does an incoming req see
system.mem_ctrls.wrQLenPdf::26                 520990                       # What write queue length does an incoming req see
system.mem_ctrls.wrQLenPdf::27                 520992                       # What write queue length does an incoming req see
system.mem_ctrls.wrQLenPdf::28                 520991                       # What write queue length does an incoming req see
system.mem_ctrls.wrQLenPdf::29                 521011                       # What write queue length does an incoming req see
system.mem_ctrls.wrQLenPdf::30                 520995                       # What write queue length does an incoming req see
system.mem_ctrls.wrQLenPdf::31                 520992                       # What write queue length does an incoming req see
system.mem_ctrls.wrQLenPdf::32                 520990                       # What write queue length does an incoming req see
system.mem_ctrls.wrQLenPdf::33                      1                       # What write queue length does an incoming req see
system.mem_ctrls.wrQLenPdf::34                      0                       # What write queue length does an incoming req see
system.mem_ctrls.wrQLenPdf::35                      0                       # What write queue length does an incoming req see
system.mem_ctrls.wrQLenPdf::36                      0                       # What write queue length does an incoming req see
system.mem_ctrls.wrQLenPdf::37                      0                       # What write queue length does an incoming req see
system.mem_ctrls.wrQLenPdf::38                      0                       # What write queue length does an incoming req see
system.mem_ctrls.wrQLenPdf::39                      0                       # What write queue length does an incoming req see
system.mem_ctrls.wrQLenPdf::40                      0                       # What write queue length does an incoming req see
system.mem_ctrls.wrQLenPdf::41                      0                       # What write queue length does an incoming req see
system.mem_ctrls.wrQLenPdf::42                      0                       # What write queue length does an incoming req see
system.mem_ctrls.wrQLenPdf::43                      0                       # What write queue length does an incoming req see
system.mem_ctrls.wrQLenPdf::44                      0                       # What write queue length does an incoming req see
system.mem_ctrls.wrQLenPdf::45                      0                       # What write queue length does an incoming req see
system.mem_ctrls.wrQLenPdf::46                      0                       # What write queue length does an incoming req see
system.mem_ctrls.wrQLenPdf::47                      0                       # What write queue length does an incoming req see
system.mem_ctrls.wrQLenPdf::48                      0                       # What write queue length does an incoming req see
system.mem_ctrls.wrQLenPdf::49                      0                       # What write queue length does an incoming req see
system.mem_ctrls.wrQLenPdf::50                      0                       # What write queue length does an incoming req see
system.mem_ctrls.wrQLenPdf::51                      0                       # What write queue length does an incoming req see
system.mem_ctrls.wrQLenPdf::52                      0                       # What write queue length does an incoming req see
system.mem_ctrls.wrQLenPdf::53                      0                       # What write queue length does an incoming req see
system.mem_ctrls.wrQLenPdf::54                      0                       # What write queue length does an incoming req see
system.mem_ctrls.wrQLenPdf::55                      0                       # What write queue length does an incoming req see
system.mem_ctrls.wrQLenPdf::56                      0                       # What write queue length does an incoming req see
system.mem_ctrls.wrQLenPdf::57                      0                       # What write queue length does an incoming req see
system.mem_ctrls.wrQLenPdf::58                      0                       # What write queue length does an incoming req see
system.mem_ctrls.wrQLenPdf::59                      0                       # What write queue length does an incoming req see
system.mem_ctrls.wrQLenPdf::60                      0                       # What write queue length does an incoming req see
system.mem_ctrls.wrQLenPdf::61                      0                       # What write queue length does an incoming req see
system.mem_ctrls.wrQLenPdf::62                      0                       # What write queue length does an incoming req see
system.mem_ctrls.wrQLenPdf::63                      0                       # What write queue length does an incoming req see
system.mem_ctrls.bytesPerActivate::samples      1426794                       # Bytes accessed per row activation
system.mem_ctrls.bytesPerActivate::mean    750.170489                       # Bytes accessed per row activation
system.mem_ctrls.bytesPerActivate::gmean   568.478013                       # Bytes accessed per row activation
system.mem_ctrls.bytesPerActivate::stdev   366.373943                       # Bytes accessed per row activation
system.mem_ctrls.bytesPerActivate::0-127       177432     12.44%     12.44% # Bytes accessed per row activation
system.mem_ctrls.bytesPerActivate::128-255        40532      2.84%     15.28% # Bytes accessed per row activation
system.mem_ctrls.bytesPerActivate::256-383        75033      5.26%     20.54% # Bytes accessed per row activation
system.mem_ctrls.bytesPerActivate::384-511        86694      6.08%     26.61% # Bytes accessed per row activation
system.mem_ctrls.bytesPerActivate::512-639        95567      6.70%     33.31% # Bytes accessed per row activation
system.mem_ctrls.bytesPerActivate::640-767        58955      4.13%     37.44% # Bytes accessed per row activation
system.mem_ctrls.bytesPerActivate::768-895        30922      2.17%     39.61% # Bytes accessed per row activation
system.mem_ctrls.bytesPerActivate::896-1023        35575      2.49%     42.10% # Bytes accessed per row activation
system.mem_ctrls.bytesPerActivate::1024-1151       826084     57.90%    100.00% # Bytes accessed per row activation
system.mem_ctrls.bytesPerActivate::total      1426794                       # Bytes accessed per row activation
system.mem_ctrls.rdPerTurnAround::samples       520990                       # Reads before turning the bus around for writes
system.mem_ctrls.rdPerTurnAround::mean      16.081276                       # Reads before turning the bus around for writes
system.mem_ctrls.rdPerTurnAround::gmean     16.043568                       # Reads before turning the bus around for writes
system.mem_ctrls.rdPerTurnAround::stdev     14.018883                       # Reads before turning the bus around for writes
system.mem_ctrls.rdPerTurnAround::0-511        520986    100.00%    100.00% # Reads before turning the bus around for writes
system.mem_ctrls.rdPerTurnAround::1024-1535            1      0.00%    100.00% # Reads before turning the bus around for writes
system.mem_ctrls.rdPerTurnAround::1536-2047            1      0.00%    100.00% # Reads before turning the bus around for writes
system.mem_ctrls.rdPerTurnAround::2048-2559            1      0.00%    100.00% # Reads before turning the bus around for writes
system.mem_ctrls.rdPerTurnAround::9216-9727            1      0.00%    100.00% # Reads before turning the bus around for writes
system.mem_ctrls.rdPerTurnAround::total        520990                       # Reads before turning the bus around for writes
system.mem_ctrls.wrPerTurnAround::samples       520990                       # Writes before turning the bus around for reads
system.mem_ctrls.wrPerTurnAround::mean      16.019227                       # Writes before turning the bus around for reads
system.mem_ctrls.wrPerTurnAround::gmean     16.018127                       # Writes before turning the bus around for reads
system.mem_ctrls.wrPerTurnAround::stdev      0.195137                       # Writes before turning the bus around for reads
system.mem_ctrls.wrPerTurnAround::16           515967     99.04%     99.04% # Writes before turning the bus around for reads
system.mem_ctrls.wrPerTurnAround::17               41      0.01%     99.04% # Writes before turning the bus around for reads
system.mem_ctrls.wrPerTurnAround::18             4971      0.95%    100.00% # Writes before turning the bus around for reads
system.mem_ctrls.wrPerTurnAround::19               10      0.00%    100.00% # Writes before turning the bus around for reads
system.mem_ctrls.wrPerTurnAround::20                1      0.00%    100.00% # Writes before turning the bus around for reads
system.mem_ctrls.wrPerTurnAround::total        520990                       # Writes before turning the bus around for reads
system.mem_ctrls.totQLat                 164630539500                       # Total ticks spent queuing
system.mem_ctrls.totMemAccLat            321721527000                       # Total ticks spent from burst creation until serviced by the DRAM
system.mem_ctrls.totBusLat                41890930000                       # Total ticks spent in databus transfers
system.mem_ctrls.avgQLat                     19649.90                       # Average queueing delay per DRAM burst
system.mem_ctrls.avgBusLat                    5000.00                       # Average bus latency per DRAM burst
system.mem_ctrls.avgMemAccLat                38399.90                       # Average memory access latency per DRAM burst
system.mem_ctrls.avgRdBW                       309.70                       # Average DRAM read bandwidth in MiByte/s
system.mem_ctrls.avgWrBW                       308.50                       # Average achieved write bandwidth in MiByte/s
system.mem_ctrls.avgRdBWSys                    309.70                       # Average system read bandwidth in MiByte/s
system.mem_ctrls.avgWrBWSys                    308.50                       # Average system write bandwidth in MiByte/s
system.mem_ctrls.peakBW                      12800.00                       # Theoretical peak bandwidth in MiByte/s
system.mem_ctrls.busUtil                         4.83                       # Data bus utilization in percentage
system.mem_ctrls.busUtilRead                     2.42                       # Data bus utilization in percentage for reads
system.mem_ctrls.busUtilWrite                    2.41                       # Data bus utilization in percentage for writes
system.mem_ctrls.avgRdQLen                       1.00                       # Average read queue length when enqueuing
system.mem_ctrls.avgWrQLen                      25.23                       # Average write queue length when enqueuing
system.mem_ctrls.readRowHits                  7606006                       # Number of row buffer hits during reads
system.mem_ctrls.writeRowHits                 7691243                       # Number of row buffer hits during writes
system.mem_ctrls.readRowHitRate                 90.78                       # Row buffer hit rate for reads
system.mem_ctrls.writeRowHitRate                92.16                       # Row buffer hit rate for writes
system.mem_ctrls.avgGap                     103524.19                       # Average gap between requests
system.mem_ctrls.pageHitRate                    91.47                       # Row buffer hit rate, read and write combined
system.mem_ctrls_0.actEnergy               5096881860                       # Energy for activate commands per rank (pJ)
system.mem_ctrls_0.preEnergy               2709056955                       # Energy for precharge commands per rank (pJ)
system.mem_ctrls_0.readEnergy             29907210900                       # Energy for read commands per rank (pJ)
system.mem_ctrls_0.writeEnergy            21781316520                       # Energy for write commands per rank (pJ)
system.mem_ctrls_0.refreshEnergy         84798192960.000015                       # Energy for refresh commands per rank (pJ)
system.mem_ctrls_0.actBackEnergy          97020635940                       # Energy for active background per rank (pJ)
system.mem_ctrls_0.preBackEnergy           5832893280                       # Energy for precharge background per rank (pJ)
system.mem_ctrls_0.actPowerDownEnergy    201722164950                       # Energy for active power-down per rank (pJ)
system.mem_ctrls_0.prePowerDownEnergy     87443380320                       # Energy for precharge power-down per rank (pJ)
system.mem_ctrls_0.selfRefreshEnergy     213425271960                       # Energy for self refresh per rank (pJ)
system.mem_ctrls_0.totalEnergy           749761896435                       # Total energy per rank (pJ)
system.mem_ctrls_0.averagePower            433.044196                       # Core power per rank (mW)
system.mem_ctrls_0.totalIdleTime         1503324014000                       # Total Idle time Per DRAM Rank
system.mem_ctrls_0.memoryStateTime::IDLE   7669137750                       # Time in different power states
system.mem_ctrls_0.memoryStateTime::REF   36023832000                       # Time in different power states
system.mem_ctrls_0.memoryStateTime::SREF 833275614500                       # Time in different power states
system.mem_ctrls_0.memoryStateTime::PRE_PDN 227712027000                       # Time in different power states
system.mem_ctrls_0.memoryStateTime::ACT  184343337500                       # Time in different power states
system.mem_ctrls_0.memoryStateTime::ACT_PDN 442351053750                       # Time in different power states
system.mem_ctrls_1.actEnergy               5090427300                       # Energy for activate commands per rank (pJ)
system.mem_ctrls_1.preEnergy               2705626275                       # Energy for precharge commands per rank (pJ)
system.mem_ctrls_1.readEnergy             29913037140                       # Energy for read commands per rank (pJ)
system.mem_ctrls_1.writeEnergy            21784057020                       # Energy for write commands per rank (pJ)
system.mem_ctrls_1.refreshEnergy         84309554160.000015                       # Energy for refresh commands per rank (pJ)
system.mem_ctrls_1.actBackEnergy          96770060520                       # Energy for active background per rank (pJ)
system.mem_ctrls_1.preBackEnergy           5796866400                       # Energy for precharge background per rank (pJ)
system.mem_ctrls_1.actPowerDownEnergy    201097802910                       # Energy for active power-down per rank (pJ)
system.mem_ctrls_1.prePowerDownEnergy     86739246240                       # Energy for precharge power-down per rank (pJ)
system.mem_ctrls_1.selfRefreshEnergy     214169760300                       # Energy for self refresh per rank (pJ)
system.mem_ctrls_1.totalEnergy           748400403795                       # Total energy per rank (pJ)
system.mem_ctrls_1.averagePower            432.257829                       # Core power per rank (mW)
system.mem_ctrls_1.totalIdleTime         1503961710750                       # Total Idle time Per DRAM Rank
system.mem_ctrls_1.memoryStateTime::IDLE   7582959000                       # Time in different power states
system.mem_ctrls_1.memoryStateTime::REF   35815326000                       # Time in different power states
system.mem_ctrls_1.memoryStateTime::SREF 837123852500                       # Time in different power states
system.mem_ctrls_1.memoryStateTime::PRE_PDN 225878158500                       # Time in different power states
system.mem_ctrls_1.memoryStateTime::ACT  183993142750                       # Time in different power states
system.mem_ctrls_1.memoryStateTime::ACT_PDN 440981563750                       # Time in different power states
system.pwrStateResidencyTicks::UNDEFINED 1731375002500                       # Cumulative time (in ticks) in various power states
system.cpu_voltage_domain.voltage                   1                       # Voltage in Volts
system.cpu_clk_domain.clock                       500                       # Clock period in ticks
system.cpu.dtb.walker.pwrStateResidencyTicks::UNDEFINED 1731375002500                       # Cumulative time (in ticks) in various power states
system.cpu.apic_clk_domain.clock                 8000                       # Clock period in ticks
system.cpu.interrupts.pwrStateResidencyTicks::UNDEFINED 1731375002500                       # Cumulative time (in ticks) in various power states
system.cpu.itb.walker.pwrStateResidencyTicks::UNDEFINED 1731375002500                       # Cumulative time (in ticks) in various power states
system.cpu.workload.num_syscalls                  196                       # Number of system calls
system.cpu.pwrStateResidencyTicks::ON    1731375002500                       # Cumulative time (in ticks) in various power states
system.cpu.numCycles                       3462750005                       # number of cpu cycles simulated
system.cpu.numWorkItemsStarted                      0                       # number of work items this cpu started
system.cpu.numWorkItemsCompleted                    0                       # number of work items this cpu completed
system.cpu.committedInsts                   500000000                       # Number of instructions committed
system.cpu.committedOps                     823366692                       # Number of ops (including micro ops) committed
system.cpu.num_int_alu_accesses             821415783                       # Number of integer alu accesses
system.cpu.num_fp_alu_accesses               66619246                       # Number of float alu accesses
system.cpu.num_func_calls                     5652773                       # number of times a function call or return occured
system.cpu.num_conditional_control_insts     57208853                       # number of instructions that are conditional controls
system.cpu.num_int_insts                    821415783                       # number of integer instructions
system.cpu.num_fp_insts                      66619246                       # number of float instructions
system.cpu.num_int_register_reads          1637209917                       # number of times the integer registers were read
system.cpu.num_int_register_writes          639871082                       # number of times the integer registers were written
system.cpu.num_fp_register_reads             66766836                       # number of times the floating registers were read
system.cpu.num_fp_register_writes              208042                       # number of times the floating registers were written
system.cpu.num_cc_register_reads            319714243                       # number of times the CC registers were read
system.cpu.num_cc_register_writes           287984022                       # number of times the CC registers were written
system.cpu.num_mem_refs                     271673939                       # number of memory refs
system.cpu.num_load_insts                   157213791                       # Number of load instructions
system.cpu.num_store_insts                  114460148                       # Number of store instructions
system.cpu.num_idle_cycles                          0                       # Number of idle cycles
system.cpu.num_busy_cycles                 3462750005                       # Number of busy cycles
system.cpu.not_idle_fraction                        1                       # Percentage of non-idle cycles
system.cpu.idle_fraction                            0                       # Percentage of idle cycles
system.cpu.Branches                          69678400                       # Number of branches fetched
system.cpu.op_class::No_OpClass                202234      0.02%      0.02% # Class of executed instruction
system.cpu.op_class::IntAlu                 550028817     66.80%     66.83% # Class of executed instruction
system.cpu.op_class::IntMult                   125092      0.02%     66.84% # Class of executed instruction
system.cpu.op_class::IntDiv                   1153479      0.14%     66.98% # Class of executed instruction
system.cpu.op_class::FloatAdd                  183131      0.02%     67.00% # Class of executed instruction
system.cpu.op_class::FloatCmp                       0      0.00%     67.00% # Class of executed instruction
system.cpu.op_class::FloatCvt                       0      0.00%     67.00% # Class of executed instruction
system.cpu.op_class::FloatMult                      0      0.00%     67.00% # Class of executed instruction
system.cpu.op_class::FloatDiv                       0      0.00%     67.00% # Class of executed instruction
system.cpu.op_class::FloatSqrt                      0      0.00%     67.00% # Class of executed instruction
system.cpu.op_class::SimdAdd                        0      0.00%     67.00% # Class of executed instruction
system.cpu.op_class::SimdAddAcc                     0      0.00%     67.00% # Class of executed instruction
system.cpu.op_class::SimdAlu                        0      0.00%     67.00% # Class of executed instruction
system.cpu.op_class::SimdCmp                        0      0.00%     67.00% # Class of executed instruction
system.cpu.op_class::SimdCvt                        0      0.00%     67.00% # Class of executed instruction
system.cpu.op_class::SimdMisc                       0      0.00%     67.00% # Class of executed instruction
system.cpu.op_class::SimdMult                       0      0.00%     67.00% # Class of executed instruction
system.cpu.op_class::SimdMultAcc                    0      0.00%     67.00% # Class of executed instruction
system.cpu.op_class::SimdShift                      0      0.00%     67.00% # Class of executed instruction
system.cpu.op_class::SimdShiftAcc                   0      0.00%     67.00% # Class of executed instruction
system.cpu.op_class::SimdSqrt                       0      0.00%     67.00% # Class of executed instruction
system.cpu.op_class::SimdFloatAdd                   0      0.00%     67.00% # Class of executed instruction
system.cpu.op_class::SimdFloatAlu                   0      0.00%     67.00% # Class of executed instruction
system.cpu.op_class::SimdFloatCmp                   0      0.00%     67.00% # Class of executed instruction
system.cpu.op_class::SimdFloatCvt                   0      0.00%     67.00% # Class of executed instruction
system.cpu.op_class::SimdFloatDiv                   0      0.00%     67.00% # Class of executed instruction
system.cpu.op_class::SimdFloatMisc                  0      0.00%     67.00% # Class of executed instruction
system.cpu.op_class::SimdFloatMult                  0      0.00%     67.00% # Class of executed instruction
system.cpu.op_class::SimdFloatMultAcc               0      0.00%     67.00% # Class of executed instruction
system.cpu.op_class::SimdFloatSqrt                  0      0.00%     67.00% # Class of executed instruction
system.cpu.op_class::MemRead                157213791     19.09%     86.10% # Class of executed instruction
system.cpu.op_class::MemWrite               114460148     13.90%    100.00% # Class of executed instruction
system.cpu.op_class::IprAccess                      0      0.00%    100.00% # Class of executed instruction
system.cpu.op_class::InstPrefetch                   0      0.00%    100.00% # Class of executed instruction
system.cpu.op_class::total                  823366692                       # Class of executed instruction
system.cpu.dcache.tags.pwrStateResidencyTicks::UNDEFINED 1731375002500                       # Cumulative time (in ticks) in various power states
system.cpu.dcache.tags.replacements           8978157                       # number of replacements
system.cpu.dcache.tags.tagsinuse          1023.499937                       # Cycle average of tags in use
system.cpu.dcache.tags.total_refs           262695362                       # Total number of references to valid blocks.
system.cpu.dcache.tags.sampled_refs           8979181                       # Sample count of references to valid blocks.
system.cpu.dcache.tags.avg_refs             29.256049                       # Average number of references to valid blocks.
system.cpu.dcache.tags.warmup_cycle        7507264500                       # Cycle when the warmup percentage was hit.
system.cpu.dcache.tags.occ_blocks::cpu.data  1023.499937                       # Average occupied blocks per requestor
system.cpu.dcache.tags.occ_percent::cpu.data     0.999512                       # Average percentage of cache occupancy
system.cpu.dcache.tags.occ_percent::total     0.999512                       # Average percentage of cache occupancy
system.cpu.dcache.tags.occ_task_id_blocks::1024         1024                       # Occupied blocks per task id
system.cpu.dcache.tags.age_task_id_blocks_1024::0            1                       # Occupied blocks per task id
system.cpu.dcache.tags.age_task_id_blocks_1024::1           43                       # Occupied blocks per task id
system.cpu.dcache.tags.age_task_id_blocks_1024::2          146                       # Occupied blocks per task id
system.cpu.dcache.tags.age_task_id_blocks_1024::3          520                       # Occupied blocks per task id
system.cpu.dcache.tags.age_task_id_blocks_1024::4          314                       # Occupied blocks per task id
system.cpu.dcache.tags.occ_task_id_percent::1024            1                       # Percentage of cache occupancy per task id
system.cpu.dcache.tags.tag_accesses         280653724                       # Number of tag accesses
system.cpu.dcache.tags.data_accesses        280653724                       # Number of data accesses
system.cpu.dcache.pwrStateResidencyTicks::UNDEFINED 1731375002500                       # Cumulative time (in ticks) in various power states
system.cpu.dcache.ReadReq_hits::cpu.data    156696197                       # number of ReadReq hits
system.cpu.dcache.ReadReq_hits::total       156696197                       # number of ReadReq hits
system.cpu.dcache.WriteReq_hits::cpu.data    105999165                       # number of WriteReq hits
system.cpu.dcache.WriteReq_hits::total      105999165                       # number of WriteReq hits
system.cpu.dcache.demand_hits::cpu.data     262695362                       # number of demand (read+write) hits
system.cpu.dcache.demand_hits::total        262695362                       # number of demand (read+write) hits
system.cpu.dcache.overall_hits::cpu.data    262695362                       # number of overall hits
system.cpu.dcache.overall_hits::total       262695362                       # number of overall hits
system.cpu.dcache.ReadReq_misses::cpu.data       518186                       # number of ReadReq misses
system.cpu.dcache.ReadReq_misses::total        518186                       # number of ReadReq misses
system.cpu.dcache.WriteReq_misses::cpu.data      8460995                       # number of WriteReq misses
system.cpu.dcache.WriteReq_misses::total      8460995                       # number of WriteReq misses
system.cpu.dcache.demand_misses::cpu.data      8979181                       # number of demand (read+write) misses
system.cpu.dcache.demand_misses::total        8979181                       # number of demand (read+write) misses
system.cpu.dcache.overall_misses::cpu.data      8979181                       # number of overall misses
system.cpu.dcache.overall_misses::total       8979181                       # number of overall misses
system.cpu.dcache.ReadReq_miss_latency::cpu.data  32419247500                       # number of ReadReq miss cycles
system.cpu.dcache.ReadReq_miss_latency::total  32419247500                       # number of ReadReq miss cycles
system.cpu.dcache.WriteReq_miss_latency::cpu.data 743059511000                       # number of WriteReq miss cycles
system.cpu.dcache.WriteReq_miss_latency::total 743059511000                       # number of WriteReq miss cycles
system.cpu.dcache.demand_miss_latency::cpu.data 775478758500                       # number of demand (read+write) miss cycles
system.cpu.dcache.demand_miss_latency::total 775478758500                       # number of demand (read+write) miss cycles
system.cpu.dcache.overall_miss_latency::cpu.data 775478758500                       # number of overall miss cycles
system.cpu.dcache.overall_miss_latency::total 775478758500                       # number of overall miss cycles
system.cpu.dcache.ReadReq_accesses::cpu.data    157214383                       # number of ReadReq accesses(hits+misses)
system.cpu.dcache.ReadReq_accesses::total    157214383                       # number of ReadReq accesses(hits+misses)
system.cpu.dcache.WriteReq_accesses::cpu.data    114460160                       # number of WriteReq accesses(hits+misses)
system.cpu.dcache.WriteReq_accesses::total    114460160                       # number of WriteReq accesses(hits+misses)
system.cpu.dcache.demand_accesses::cpu.data    271674543                       # number of demand (read+write) accesses
system.cpu.dcache.demand_accesses::total    271674543                       # number of demand (read+write) accesses
system.cpu.dcache.overall_accesses::cpu.data    271674543                       # number of overall (read+write) accesses
system.cpu.dcache.overall_accesses::total    271674543                       # number of overall (read+write) accesses
system.cpu.dcache.ReadReq_miss_rate::cpu.data     0.003296                       # miss rate for ReadReq accesses
system.cpu.dcache.ReadReq_miss_rate::total     0.003296                       # miss rate for ReadReq accesses
system.cpu.dcache.WriteReq_miss_rate::cpu.data     0.073921                       # miss rate for WriteReq accesses
system.cpu.dcache.WriteReq_miss_rate::total     0.073921                       # miss rate for WriteReq accesses
system.cpu.dcache.demand_miss_rate::cpu.data     0.033051                       # miss rate for demand accesses
system.cpu.dcache.demand_miss_rate::total     0.033051                       # miss rate for demand accesses
system.cpu.dcache.overall_miss_rate::cpu.data     0.033051                       # miss rate for overall accesses
system.cpu.dcache.overall_miss_rate::total     0.033051                       # miss rate for overall accesses
system.cpu.dcache.ReadReq_avg_miss_latency::cpu.data 62562.955194                       # average ReadReq miss latency
system.cpu.dcache.ReadReq_avg_miss_latency::total 62562.955194                       # average ReadReq miss latency
system.cpu.dcache.WriteReq_avg_miss_latency::cpu.data 87821.764580                       # average WriteReq miss latency
system.cpu.dcache.WriteReq_avg_miss_latency::total 87821.764580                       # average WriteReq miss latency
system.cpu.dcache.demand_avg_miss_latency::cpu.data 86364.085823                       # average overall miss latency
system.cpu.dcache.demand_avg_miss_latency::total 86364.085823                       # average overall miss latency
system.cpu.dcache.overall_avg_miss_latency::cpu.data 86364.085823                       # average overall miss latency
system.cpu.dcache.overall_avg_miss_latency::total 86364.085823                       # average overall miss latency
system.cpu.dcache.blocked_cycles::no_mshrs            0                       # number of cycles access was blocked
system.cpu.dcache.blocked_cycles::no_targets            0                       # number of cycles access was blocked
system.cpu.dcache.blocked::no_mshrs                 0                       # number of cycles access was blocked
system.cpu.dcache.blocked::no_targets               0                       # number of cycles access was blocked
system.cpu.dcache.avg_blocked_cycles::no_mshrs          nan                       # average number of cycles each access was blocked
system.cpu.dcache.avg_blocked_cycles::no_targets          nan                       # average number of cycles each access was blocked
system.cpu.dcache.writebacks::writebacks      8726551                       # number of writebacks
system.cpu.dcache.writebacks::total           8726551                       # number of writebacks
system.cpu.dcache.ReadReq_mshr_misses::cpu.data       518186                       # number of ReadReq MSHR misses
system.cpu.dcache.ReadReq_mshr_misses::total       518186                       # number of ReadReq MSHR misses
system.cpu.dcache.WriteReq_mshr_misses::cpu.data      8460995                       # number of WriteReq MSHR misses
system.cpu.dcache.WriteReq_mshr_misses::total      8460995                       # number of WriteReq MSHR misses
system.cpu.dcache.demand_mshr_misses::cpu.data      8979181                       # number of demand (read+write) MSHR misses
system.cpu.dcache.demand_mshr_misses::total      8979181                       # number of demand (read+write) MSHR misses
system.cpu.dcache.overall_mshr_misses::cpu.data      8979181                       # number of overall MSHR misses
system.cpu.dcache.overall_mshr_misses::total      8979181                       # number of overall MSHR misses
system.cpu.dcache.ReadReq_mshr_miss_latency::cpu.data  31901061500                       # number of ReadReq MSHR miss cycles
system.cpu.dcache.ReadReq_mshr_miss_latency::total  31901061500                       # number of ReadReq MSHR miss cycles
system.cpu.dcache.WriteReq_mshr_miss_latency::cpu.data 734598516000                       # number of WriteReq MSHR miss cycles
system.cpu.dcache.WriteReq_mshr_miss_latency::total 734598516000                       # number of WriteReq MSHR miss cycles
system.cpu.dcache.demand_mshr_miss_latency::cpu.data 766499577500                       # number of demand (read+write) MSHR miss cycles
system.cpu.dcache.demand_mshr_miss_latency::total 766499577500                       # number of demand (read+write) MSHR miss cycles
system.cpu.dcache.overall_mshr_miss_latency::cpu.data 766499577500                       # number of overall MSHR miss cycles
system.cpu.dcache.overall_mshr_miss_latency::total 766499577500                       # number of overall MSHR miss cycles
system.cpu.dcache.ReadReq_mshr_miss_rate::cpu.data     0.003296                       # mshr miss rate for ReadReq accesses
system.cpu.dcache.ReadReq_mshr_miss_rate::total     0.003296                       # mshr miss rate for ReadReq accesses
system.cpu.dcache.WriteReq_mshr_miss_rate::cpu.data     0.073921                       # mshr miss rate for WriteReq accesses
system.cpu.dcache.WriteReq_mshr_miss_rate::total     0.073921                       # mshr miss rate for WriteReq accesses
system.cpu.dcache.demand_mshr_miss_rate::cpu.data     0.033051                       # mshr miss rate for demand accesses
system.cpu.dcache.demand_mshr_miss_rate::total     0.033051                       # mshr miss rate for demand accesses
system.cpu.dcache.overall_mshr_miss_rate::cpu.data     0.033051                       # mshr miss rate for overall accesses
system.cpu.dcache.overall_mshr_miss_rate::total     0.033051                       # mshr miss rate for overall accesses
system.cpu.dcache.ReadReq_avg_mshr_miss_latency::cpu.data 61562.955194                       # average ReadReq mshr miss latency
system.cpu.dcache.ReadReq_avg_mshr_miss_latency::total 61562.955194                       # average ReadReq mshr miss latency
system.cpu.dcache.WriteReq_avg_mshr_miss_latency::cpu.data 86821.764580                       # average WriteReq mshr miss latency
system.cpu.dcache.WriteReq_avg_mshr_miss_latency::total 86821.764580                       # average WriteReq mshr miss latency
system.cpu.dcache.demand_avg_mshr_miss_latency::cpu.data 85364.085823                       # average overall mshr miss latency
system.cpu.dcache.demand_avg_mshr_miss_latency::total 85364.085823                       # average overall mshr miss latency
system.cpu.dcache.overall_avg_mshr_miss_latency::cpu.data 85364.085823                       # average overall mshr miss latency
system.cpu.dcache.overall_avg_mshr_miss_latency::total 85364.085823                       # average overall mshr miss latency
system.cpu.dtb_walker_cache.tags.pwrStateResidencyTicks::UNDEFINED 1731375002500                       # Cumulative time (in ticks) in various power states
system.cpu.dtb_walker_cache.tags.replacements            0                       # number of replacements
system.cpu.dtb_walker_cache.tags.tagsinuse            0                       # Cycle average of tags in use
system.cpu.dtb_walker_cache.tags.total_refs            0                       # Total number of references to valid blocks.
system.cpu.dtb_walker_cache.tags.sampled_refs            0                       # Sample count of references to valid blocks.
system.cpu.dtb_walker_cache.tags.avg_refs          nan                       # Average number of references to valid blocks.
system.cpu.dtb_walker_cache.tags.warmup_cycle            0                       # Cycle when the warmup percentage was hit.
system.cpu.dtb_walker_cache.tags.tag_accesses            0                       # Number of tag accesses
system.cpu.dtb_walker_cache.tags.data_accesses            0                       # Number of data accesses
system.cpu.dtb_walker_cache.pwrStateResidencyTicks::UNDEFINED 1731375002500                       # Cumulative time (in ticks) in various power states
system.cpu.dtb_walker_cache.blocked_cycles::no_mshrs            0                       # number of cycles access was blocked
system.cpu.dtb_walker_cache.blocked_cycles::no_targets            0                       # number of cycles access was blocked
system.cpu.dtb_walker_cache.blocked::no_mshrs            0                       # number of cycles access was blocked
system.cpu.dtb_walker_cache.blocked::no_targets            0                       # number of cycles access was blocked
system.cpu.dtb_walker_cache.avg_blocked_cycles::no_mshrs          nan                       # average number of cycles each access was blocked
system.cpu.dtb_walker_cache.avg_blocked_cycles::no_targets          nan                       # average number of cycles each access was blocked
system.cpu.icache.tags.pwrStateResidencyTicks::UNDEFINED 1731375002500                       # Cumulative time (in ticks) in various power states
system.cpu.icache.tags.replacements           1460054                       # number of replacements
system.cpu.icache.tags.tagsinuse           677.702700                       # Cycle average of tags in use
system.cpu.icache.tags.total_refs           673892693                       # Total number of references to valid blocks.
system.cpu.icache.tags.sampled_refs           1460964                       # Sample count of references to valid blocks.
system.cpu.icache.tags.avg_refs            461.265776                       # Average number of references to valid blocks.
system.cpu.icache.tags.warmup_cycle                 0                       # Cycle when the warmup percentage was hit.
system.cpu.icache.tags.occ_blocks::cpu.inst   677.702700                       # Average occupied blocks per requestor
system.cpu.icache.tags.occ_percent::cpu.inst     0.661819                       # Average percentage of cache occupancy
system.cpu.icache.tags.occ_percent::total     0.661819                       # Average percentage of cache occupancy
system.cpu.icache.tags.occ_task_id_blocks::1024          910                       # Occupied blocks per task id
system.cpu.icache.tags.age_task_id_blocks_1024::0            8                       # Occupied blocks per task id
system.cpu.icache.tags.age_task_id_blocks_1024::1           50                       # Occupied blocks per task id
system.cpu.icache.tags.age_task_id_blocks_1024::2           19                       # Occupied blocks per task id
system.cpu.icache.tags.age_task_id_blocks_1024::3           20                       # Occupied blocks per task id
system.cpu.icache.tags.age_task_id_blocks_1024::4          813                       # Occupied blocks per task id
system.cpu.icache.tags.occ_task_id_percent::1024     0.888672                       # Percentage of cache occupancy per task id
system.cpu.icache.tags.tag_accesses         676814621                       # Number of tag accesses
system.cpu.icache.tags.data_accesses        676814621                       # Number of data accesses
system.cpu.icache.pwrStateResidencyTicks::UNDEFINED 1731375002500                       # Cumulative time (in ticks) in various power states
system.cpu.icache.ReadReq_hits::cpu.inst    673892693                       # number of ReadReq hits
system.cpu.icache.ReadReq_hits::total       673892693                       # number of ReadReq hits
system.cpu.icache.demand_hits::cpu.inst     673892693                       # number of demand (read+write) hits
system.cpu.icache.demand_hits::total        673892693                       # number of demand (read+write) hits
system.cpu.icache.overall_hits::cpu.inst    673892693                       # number of overall hits
system.cpu.icache.overall_hits::total       673892693                       # number of overall hits
system.cpu.icache.ReadReq_misses::cpu.inst      1460964                       # number of ReadReq misses
system.cpu.icache.ReadReq_misses::total       1460964                       # number of ReadReq misses
system.cpu.icache.demand_misses::cpu.inst      1460964                       # number of demand (read+write) misses
system.cpu.icache.demand_misses::total        1460964                       # number of demand (read+write) misses
system.cpu.icache.overall_misses::cpu.inst      1460964                       # number of overall misses
system.cpu.icache.overall_misses::total       1460964                       # number of overall misses
system.cpu.icache.ReadReq_miss_latency::cpu.inst  19308614000                       # number of ReadReq miss cycles
system.cpu.icache.ReadReq_miss_latency::total  19308614000                       # number of ReadReq miss cycles
system.cpu.icache.demand_miss_latency::cpu.inst  19308614000                       # number of demand (read+write) miss cycles
system.cpu.icache.demand_miss_latency::total  19308614000                       # number of demand (read+write) miss cycles
system.cpu.icache.overall_miss_latency::cpu.inst  19308614000                       # number of overall miss cycles
system.cpu.icache.overall_miss_latency::total  19308614000                       # number of overall miss cycles
system.cpu.icache.ReadReq_accesses::cpu.inst    675353657                       # number of ReadReq accesses(hits+misses)
system.cpu.icache.ReadReq_accesses::total    675353657                       # number of ReadReq accesses(hits+misses)
system.cpu.icache.demand_accesses::cpu.inst    675353657                       # number of demand (read+write) accesses
system.cpu.icache.demand_accesses::total    675353657                       # number of demand (read+write) accesses
system.cpu.icache.overall_accesses::cpu.inst    675353657                       # number of overall (read+write) accesses
system.cpu.icache.overall_accesses::total    675353657                       # number of overall (read+write) accesses
system.cpu.icache.ReadReq_miss_rate::cpu.inst     0.002163                       # miss rate for ReadReq accesses
system.cpu.icache.ReadReq_miss_rate::total     0.002163                       # miss rate for ReadReq accesses
system.cpu.icache.demand_miss_rate::cpu.inst     0.002163                       # miss rate for demand accesses
system.cpu.icache.demand_miss_rate::total     0.002163                       # miss rate for demand accesses
system.cpu.icache.overall_miss_rate::cpu.inst     0.002163                       # miss rate for overall accesses
system.cpu.icache.overall_miss_rate::total     0.002163                       # miss rate for overall accesses
system.cpu.icache.ReadReq_avg_miss_latency::cpu.inst 13216.351669                       # average ReadReq miss latency
system.cpu.icache.ReadReq_avg_miss_latency::total 13216.351669                       # average ReadReq miss latency
system.cpu.icache.demand_avg_miss_latency::cpu.inst 13216.351669                       # average overall miss latency
system.cpu.icache.demand_avg_miss_latency::total 13216.351669                       # average overall miss latency
system.cpu.icache.overall_avg_miss_latency::cpu.inst 13216.351669                       # average overall miss latency
system.cpu.icache.overall_avg_miss_latency::total 13216.351669                       # average overall miss latency
system.cpu.icache.blocked_cycles::no_mshrs            0                       # number of cycles access was blocked
system.cpu.icache.blocked_cycles::no_targets            0                       # number of cycles access was blocked
system.cpu.icache.blocked::no_mshrs                 0                       # number of cycles access was blocked
system.cpu.icache.blocked::no_targets               0                       # number of cycles access was blocked
system.cpu.icache.avg_blocked_cycles::no_mshrs          nan                       # average number of cycles each access was blocked
system.cpu.icache.avg_blocked_cycles::no_targets          nan                       # average number of cycles each access was blocked
system.cpu.icache.writebacks::writebacks      1460054                       # number of writebacks
system.cpu.icache.writebacks::total           1460054                       # number of writebacks
system.cpu.icache.ReadReq_mshr_misses::cpu.inst      1460964                       # number of ReadReq MSHR misses
system.cpu.icache.ReadReq_mshr_misses::total      1460964                       # number of ReadReq MSHR misses
system.cpu.icache.demand_mshr_misses::cpu.inst      1460964                       # number of demand (read+write) MSHR misses
system.cpu.icache.demand_mshr_misses::total      1460964                       # number of demand (read+write) MSHR misses
system.cpu.icache.overall_mshr_misses::cpu.inst      1460964                       # number of overall MSHR misses
system.cpu.icache.overall_mshr_misses::total      1460964                       # number of overall MSHR misses
system.cpu.icache.ReadReq_mshr_miss_latency::cpu.inst  17847650000                       # number of ReadReq MSHR miss cycles
system.cpu.icache.ReadReq_mshr_miss_latency::total  17847650000                       # number of ReadReq MSHR miss cycles
system.cpu.icache.demand_mshr_miss_latency::cpu.inst  17847650000                       # number of demand (read+write) MSHR miss cycles
system.cpu.icache.demand_mshr_miss_latency::total  17847650000                       # number of demand (read+write) MSHR miss cycles
system.cpu.icache.overall_mshr_miss_latency::cpu.inst  17847650000                       # number of overall MSHR miss cycles
system.cpu.icache.overall_mshr_miss_latency::total  17847650000                       # number of overall MSHR miss cycles
system.cpu.icache.ReadReq_mshr_miss_rate::cpu.inst     0.002163                       # mshr miss rate for ReadReq accesses
system.cpu.icache.ReadReq_mshr_miss_rate::total     0.002163                       # mshr miss rate for ReadReq accesses
system.cpu.icache.demand_mshr_miss_rate::cpu.inst     0.002163                       # mshr miss rate for demand accesses
system.cpu.icache.demand_mshr_miss_rate::total     0.002163                       # mshr miss rate for demand accesses
system.cpu.icache.overall_mshr_miss_rate::cpu.inst     0.002163                       # mshr miss rate for overall accesses
system.cpu.icache.overall_mshr_miss_rate::total     0.002163                       # mshr miss rate for overall accesses
system.cpu.icache.ReadReq_avg_mshr_miss_latency::cpu.inst 12216.351669                       # average ReadReq mshr miss latency
system.cpu.icache.ReadReq_avg_mshr_miss_latency::total 12216.351669                       # average ReadReq mshr miss latency
system.cpu.icache.demand_avg_mshr_miss_latency::cpu.inst 12216.351669                       # average overall mshr miss latency
system.cpu.icache.demand_avg_mshr_miss_latency::total 12216.351669                       # average overall mshr miss latency
system.cpu.icache.overall_avg_mshr_miss_latency::cpu.inst 12216.351669                       # average overall mshr miss latency
system.cpu.icache.overall_avg_mshr_miss_latency::total 12216.351669                       # average overall mshr miss latency
system.cpu.itb_walker_cache.tags.pwrStateResidencyTicks::UNDEFINED 1731375002500                       # Cumulative time (in ticks) in various power states
system.cpu.itb_walker_cache.tags.replacements            0                       # number of replacements
system.cpu.itb_walker_cache.tags.tagsinuse            0                       # Cycle average of tags in use
system.cpu.itb_walker_cache.tags.total_refs            0                       # Total number of references to valid blocks.
system.cpu.itb_walker_cache.tags.sampled_refs            0                       # Sample count of references to valid blocks.
system.cpu.itb_walker_cache.tags.avg_refs          nan                       # Average number of references to valid blocks.
system.cpu.itb_walker_cache.tags.warmup_cycle            0                       # Cycle when the warmup percentage was hit.
system.cpu.itb_walker_cache.tags.tag_accesses            0                       # Number of tag accesses
system.cpu.itb_walker_cache.tags.data_accesses            0                       # Number of data accesses
system.cpu.itb_walker_cache.pwrStateResidencyTicks::UNDEFINED 1731375002500                       # Cumulative time (in ticks) in various power states
system.cpu.itb_walker_cache.blocked_cycles::no_mshrs            0                       # number of cycles access was blocked
system.cpu.itb_walker_cache.blocked_cycles::no_targets            0                       # number of cycles access was blocked
system.cpu.itb_walker_cache.blocked::no_mshrs            0                       # number of cycles access was blocked
system.cpu.itb_walker_cache.blocked::no_targets            0                       # number of cycles access was blocked
system.cpu.itb_walker_cache.avg_blocked_cycles::no_mshrs          nan                       # average number of cycles each access was blocked
system.cpu.itb_walker_cache.avg_blocked_cycles::no_targets          nan                       # average number of cycles each access was blocked
system.l2.tags.pwrStateResidencyTicks::UNDEFINED 1731375002500                       # Cumulative time (in ticks) in various power states
system.l2.tags.replacements                   8364230                       # number of replacements
system.l2.tags.tagsinuse                 16313.401232                       # Cycle average of tags in use
system.l2.tags.total_refs                    12497056                       # Total number of references to valid blocks.
system.l2.tags.sampled_refs                   8380614                       # Sample count of references to valid blocks.
system.l2.tags.avg_refs                      1.491186                       # Average number of references to valid blocks.
system.l2.tags.warmup_cycle                9608689000                       # Cycle when the warmup percentage was hit.
system.l2.tags.occ_blocks::writebacks      178.058798                       # Average occupied blocks per requestor
system.l2.tags.occ_blocks::cpu.inst        185.756410                       # Average occupied blocks per requestor
system.l2.tags.occ_blocks::cpu.data      15949.586024                       # Average occupied blocks per requestor
system.l2.tags.occ_percent::writebacks       0.010868                       # Average percentage of cache occupancy
system.l2.tags.occ_percent::cpu.inst         0.011338                       # Average percentage of cache occupancy
system.l2.tags.occ_percent::cpu.data         0.973485                       # Average percentage of cache occupancy
system.l2.tags.occ_percent::total            0.995691                       # Average percentage of cache occupancy
system.l2.tags.occ_task_id_blocks::1024         16384                       # Occupied blocks per task id
system.l2.tags.age_task_id_blocks_1024::1            6                       # Occupied blocks per task id
system.l2.tags.age_task_id_blocks_1024::2           85                       # Occupied blocks per task id
system.l2.tags.age_task_id_blocks_1024::3          872                       # Occupied blocks per task id
system.l2.tags.age_task_id_blocks_1024::4        15421                       # Occupied blocks per task id
system.l2.tags.occ_task_id_percent::1024            1                       # Percentage of cache occupancy per task id
system.l2.tags.tag_accesses                  50137324                       # Number of tag accesses
system.l2.tags.data_accesses                 50137324                       # Number of data accesses
system.l2.pwrStateResidencyTicks::UNDEFINED 1731375002500                       # Cumulative time (in ticks) in various power states
system.l2.WritebackDirty_hits::writebacks      8726551                       # number of WritebackDirty hits
system.l2.WritebackDirty_hits::total          8726551                       # number of WritebackDirty hits
system.l2.WritebackClean_hits::writebacks      1460054                       # number of WritebackClean hits
system.l2.WritebackClean_hits::total          1460054                       # number of WritebackClean hits
system.l2.ReadExReq_hits::cpu.data             165859                       # number of ReadExReq hits
system.l2.ReadExReq_hits::total                165859                       # number of ReadExReq hits
system.l2.ReadCleanReq_hits::cpu.inst         1458719                       # number of ReadCleanReq hits
system.l2.ReadCleanReq_hits::total            1458719                       # number of ReadCleanReq hits
system.l2.ReadSharedReq_hits::cpu.data         437313                       # number of ReadSharedReq hits
system.l2.ReadSharedReq_hits::total            437313                       # number of ReadSharedReq hits
system.l2.demand_hits::cpu.inst               1458719                       # number of demand (read+write) hits
system.l2.demand_hits::cpu.data                603172                       # number of demand (read+write) hits
system.l2.demand_hits::total                  2061891                       # number of demand (read+write) hits
system.l2.overall_hits::cpu.inst              1458719                       # number of overall hits
system.l2.overall_hits::cpu.data               603172                       # number of overall hits
system.l2.overall_hits::total                 2061891                       # number of overall hits
system.l2.ReadExReq_misses::cpu.data          8295136                       # number of ReadExReq misses
system.l2.ReadExReq_misses::total             8295136                       # number of ReadExReq misses
system.l2.ReadCleanReq_misses::cpu.inst          2245                       # number of ReadCleanReq misses
system.l2.ReadCleanReq_misses::total             2245                       # number of ReadCleanReq misses
system.l2.ReadSharedReq_misses::cpu.data        80873                       # number of ReadSharedReq misses
system.l2.ReadSharedReq_misses::total           80873                       # number of ReadSharedReq misses
system.l2.demand_misses::cpu.inst                2245                       # number of demand (read+write) misses
system.l2.demand_misses::cpu.data             8376009                       # number of demand (read+write) misses
system.l2.demand_misses::total                8378254                       # number of demand (read+write) misses
system.l2.overall_misses::cpu.inst               2245                       # number of overall misses
system.l2.overall_misses::cpu.data            8376009                       # number of overall misses
system.l2.overall_misses::total               8378254                       # number of overall misses
system.l2.ReadExReq_miss_latency::cpu.data 720165381500                       # number of ReadExReq miss cycles
system.l2.ReadExReq_miss_latency::total  720165381500                       # number of ReadExReq miss cycles
system.l2.ReadCleanReq_miss_latency::cpu.inst    327261500                       # number of ReadCleanReq miss cycles
system.l2.ReadCleanReq_miss_latency::total    327261500                       # number of ReadCleanReq miss cycles
system.l2.ReadSharedReq_miss_latency::cpu.data  26530521000                       # number of ReadSharedReq miss cycles
system.l2.ReadSharedReq_miss_latency::total  26530521000                       # number of ReadSharedReq miss cycles
system.l2.demand_miss_latency::cpu.inst     327261500                       # number of demand (read+write) miss cycles
system.l2.demand_miss_latency::cpu.data  746695902500                       # number of demand (read+write) miss cycles
system.l2.demand_miss_latency::total     747023164000                       # number of demand (read+write) miss cycles
system.l2.overall_miss_latency::cpu.inst    327261500                       # number of overall miss cycles
system.l2.overall_miss_latency::cpu.data 746695902500                       # number of overall miss cycles
system.l2.overall_miss_latency::total    747023164000                       # number of overall miss cycles
system.l2.WritebackDirty_accesses::writebacks      8726551                       # number of WritebackDirty accesses(hits+misses)
system.l2.WritebackDirty_accesses::total      8726551                       # number of WritebackDirty accesses(hits+misses)
system.l2.WritebackClean_accesses::writebacks      1460054                       # number of WritebackClean accesses(hits+misses)
system.l2.WritebackClean_accesses::total      1460054                       # number of WritebackClean accesses(hits+misses)
system.l2.ReadExReq_accesses::cpu.data        8460995                       # number of ReadExReq accesses(hits+misses)
system.l2.ReadExReq_accesses::total           8460995                       # number of ReadExReq accesses(hits+misses)
system.l2.ReadCleanReq_accesses::cpu.inst      1460964                       # number of ReadCleanReq accesses(hits+misses)
system.l2.ReadCleanReq_accesses::total        1460964                       # number of ReadCleanReq accesses(hits+misses)
system.l2.ReadSharedReq_accesses::cpu.data       518186                       # number of ReadSharedReq accesses(hits+misses)
system.l2.ReadSharedReq_accesses::total        518186                       # number of ReadSharedReq accesses(hits+misses)
system.l2.demand_accesses::cpu.inst           1460964                       # number of demand (read+write) accesses
system.l2.demand_accesses::cpu.data           8979181                       # number of demand (read+write) accesses
system.l2.demand_accesses::total             10440145                       # number of demand (read+write) accesses
system.l2.overall_accesses::cpu.inst          1460964                       # number of overall (read+write) accesses
system.l2.overall_accesses::cpu.data          8979181                       # number of overall (read+write) accesses
system.l2.overall_accesses::total            10440145                       # number of overall (read+write) accesses
system.l2.ReadExReq_miss_rate::cpu.data      0.980397                       # miss rate for ReadExReq accesses
system.l2.ReadExReq_miss_rate::total         0.980397                       # miss rate for ReadExReq accesses
system.l2.ReadCleanReq_miss_rate::cpu.inst     0.001537                       # miss rate for ReadCleanReq accesses
system.l2.ReadCleanReq_miss_rate::total      0.001537                       # miss rate for ReadCleanReq accesses
system.l2.ReadSharedReq_miss_rate::cpu.data     0.156069                       # miss rate for ReadSharedReq accesses
system.l2.ReadSharedReq_miss_rate::total     0.156069                       # miss rate for ReadSharedReq accesses
system.l2.demand_miss_rate::cpu.inst         0.001537                       # miss rate for demand accesses
system.l2.demand_miss_rate::cpu.data         0.932825                       # miss rate for demand accesses
system.l2.demand_miss_rate::total            0.802504                       # miss rate for demand accesses
system.l2.overall_miss_rate::cpu.inst        0.001537                       # miss rate for overall accesses
system.l2.overall_miss_rate::cpu.data        0.932825                       # miss rate for overall accesses
system.l2.overall_miss_rate::total           0.802504                       # miss rate for overall accesses
system.l2.ReadExReq_avg_miss_latency::cpu.data 86817.790751                       # average ReadExReq miss latency
system.l2.ReadExReq_avg_miss_latency::total 86817.790751                       # average ReadExReq miss latency
system.l2.ReadCleanReq_avg_miss_latency::cpu.inst 145773.496659                       # average ReadCleanReq miss latency
system.l2.ReadCleanReq_avg_miss_latency::total 145773.496659                       # average ReadCleanReq miss latency
system.l2.ReadSharedReq_avg_miss_latency::cpu.data 328051.648882                       # average ReadSharedReq miss latency
system.l2.ReadSharedReq_avg_miss_latency::total 328051.648882                       # average ReadSharedReq miss latency
system.l2.demand_avg_miss_latency::cpu.inst 145773.496659                       # average overall miss latency
system.l2.demand_avg_miss_latency::cpu.data 89146.979486                       # average overall miss latency
system.l2.demand_avg_miss_latency::total 89162.152878                       # average overall miss latency
system.l2.overall_avg_miss_latency::cpu.inst 145773.496659                       # average overall miss latency
system.l2.overall_avg_miss_latency::cpu.data 89146.979486                       # average overall miss latency
system.l2.overall_avg_miss_latency::total 89162.152878                       # average overall miss latency
system.l2.blocked_cycles::no_mshrs                  0                       # number of cycles access was blocked
system.l2.blocked_cycles::no_targets                0                       # number of cycles access was blocked
system.l2.blocked::no_mshrs                         0                       # number of cycles access was blocked
system.l2.blocked::no_targets                       0                       # number of cycles access was blocked
system.l2.avg_blocked_cycles::no_mshrs            nan                       # average number of cycles each access was blocked
system.l2.avg_blocked_cycles::no_targets          nan                       # average number of cycles each access was blocked
system.l2.writebacks::writebacks              8345873                       # number of writebacks
system.l2.writebacks::total                   8345873                       # number of writebacks
system.l2.CleanEvict_mshr_misses::writebacks          685                       # number of CleanEvict MSHR misses
system.l2.CleanEvict_mshr_misses::total           685                       # number of CleanEvict MSHR misses
system.l2.ReadExReq_mshr_misses::cpu.data      8295136                       # number of ReadExReq MSHR misses
system.l2.ReadExReq_mshr_misses::total        8295136                       # number of ReadExReq MSHR misses
system.l2.ReadCleanReq_mshr_misses::cpu.inst         2245                       # number of ReadCleanReq MSHR misses
system.l2.ReadCleanReq_mshr_misses::total         2245                       # number of ReadCleanReq MSHR misses
system.l2.ReadSharedReq_mshr_misses::cpu.data        80873                       # number of ReadSharedReq MSHR misses
system.l2.ReadSharedReq_mshr_misses::total        80873                       # number of ReadSharedReq MSHR misses
system.l2.demand_mshr_misses::cpu.inst           2245                       # number of demand (read+write) MSHR misses
system.l2.demand_mshr_misses::cpu.data        8376009                       # number of demand (read+write) MSHR misses
system.l2.demand_mshr_misses::total           8378254                       # number of demand (read+write) MSHR misses
system.l2.overall_mshr_misses::cpu.inst          2245                       # number of overall MSHR misses
system.l2.overall_mshr_misses::cpu.data       8376009                       # number of overall MSHR misses
system.l2.overall_mshr_misses::total          8378254                       # number of overall MSHR misses
system.l2.ReadExReq_mshr_miss_latency::cpu.data 637214021500                       # number of ReadExReq MSHR miss cycles
system.l2.ReadExReq_mshr_miss_latency::total 637214021500                       # number of ReadExReq MSHR miss cycles
system.l2.ReadCleanReq_mshr_miss_latency::cpu.inst    304811500                       # number of ReadCleanReq MSHR miss cycles
system.l2.ReadCleanReq_mshr_miss_latency::total    304811500                       # number of ReadCleanReq MSHR miss cycles
system.l2.ReadSharedReq_mshr_miss_latency::cpu.data  25721791000                       # number of ReadSharedReq MSHR miss cycles
system.l2.ReadSharedReq_mshr_miss_latency::total  25721791000                       # number of ReadSharedReq MSHR miss cycles
system.l2.demand_mshr_miss_latency::cpu.inst    304811500                       # number of demand (read+write) MSHR miss cycles
system.l2.demand_mshr_miss_latency::cpu.data 662935812500                       # number of demand (read+write) MSHR miss cycles
system.l2.demand_mshr_miss_latency::total 663240624000                       # number of demand (read+write) MSHR miss cycles
system.l2.overall_mshr_miss_latency::cpu.inst    304811500                       # number of overall MSHR miss cycles
system.l2.overall_mshr_miss_latency::cpu.data 662935812500                       # number of overall MSHR miss cycles
system.l2.overall_mshr_miss_latency::total 663240624000                       # number of overall MSHR miss cycles
system.l2.CleanEvict_mshr_miss_rate::writebacks          inf                       # mshr miss rate for CleanEvict accesses
system.l2.CleanEvict_mshr_miss_rate::total          inf                       # mshr miss rate for CleanEvict accesses
system.l2.ReadExReq_mshr_miss_rate::cpu.data     0.980397                       # mshr miss rate for ReadExReq accesses
system.l2.ReadExReq_mshr_miss_rate::total     0.980397                       # mshr miss rate for ReadExReq accesses
system.l2.ReadCleanReq_mshr_miss_rate::cpu.inst     0.001537                       # mshr miss rate for ReadCleanReq accesses
system.l2.ReadCleanReq_mshr_miss_rate::total     0.001537                       # mshr miss rate for ReadCleanReq accesses
system.l2.ReadSharedReq_mshr_miss_rate::cpu.data     0.156069                       # mshr miss rate for ReadSharedReq accesses
system.l2.ReadSharedReq_mshr_miss_rate::total     0.156069                       # mshr miss rate for ReadSharedReq accesses
system.l2.demand_mshr_miss_rate::cpu.inst     0.001537                       # mshr miss rate for demand accesses
system.l2.demand_mshr_miss_rate::cpu.data     0.932825                       # mshr miss rate for demand accesses
system.l2.demand_mshr_miss_rate::total       0.802504                       # mshr miss rate for demand accesses
system.l2.overall_mshr_miss_rate::cpu.inst     0.001537                       # mshr miss rate for overall accesses
system.l2.overall_mshr_miss_rate::cpu.data     0.932825                       # mshr miss rate for overall accesses
system.l2.overall_mshr_miss_rate::total      0.802504                       # mshr miss rate for overall accesses
system.l2.ReadExReq_avg_mshr_miss_latency::cpu.data 76817.790751                       # average ReadExReq mshr miss latency
system.l2.ReadExReq_avg_mshr_miss_latency::total 76817.790751                       # average ReadExReq mshr miss latency
system.l2.ReadCleanReq_avg_mshr_miss_latency::cpu.inst 135773.496659                       # average ReadCleanReq mshr miss latency
system.l2.ReadCleanReq_avg_mshr_miss_latency::total 135773.496659                       # average ReadCleanReq mshr miss latency
system.l2.ReadSharedReq_avg_mshr_miss_latency::cpu.data 318051.648882                       # average ReadSharedReq mshr miss latency
system.l2.ReadSharedReq_avg_mshr_miss_latency::total 318051.648882                       # average ReadSharedReq mshr miss latency
system.l2.demand_avg_mshr_miss_latency::cpu.inst 135773.496659                       # average overall mshr miss latency
system.l2.demand_avg_mshr_miss_latency::cpu.data 79146.979486                       # average overall mshr miss latency
system.l2.demand_avg_mshr_miss_latency::total 79162.152878                       # average overall mshr miss latency
system.l2.overall_avg_mshr_miss_latency::cpu.inst 135773.496659                       # average overall mshr miss latency
system.l2.overall_avg_mshr_miss_latency::cpu.data 79146.979486                       # average overall mshr miss latency
system.l2.overall_avg_mshr_miss_latency::total 79162.152878                       # average overall mshr miss latency
system.membus.snoop_filter.tot_requests      16739408                       # Total number of requests made to the snoop filter.
system.membus.snoop_filter.hit_single_requests      8361154                       # Number of requests hitting in the snoop filter with a single holder of the requested data.
system.membus.snoop_filter.hit_multi_requests            0                       # Number of requests hitting in the snoop filter with multiple (>1) holders of the requested data.
system.membus.snoop_filter.tot_snoops               0                       # Total number of snoops made to the snoop filter.
system.membus.snoop_filter.hit_single_snoops            0                       # Number of snoops hitting in the snoop filter with a single holder of the requested data.
system.membus.snoop_filter.hit_multi_snoops            0                       # Number of snoops hitting in the snoop filter with multiple (>1) holders of the requested data.
system.membus.pwrStateResidencyTicks::UNDEFINED 1731375002500                       # Cumulative time (in ticks) in various power states
system.membus.trans_dist::ReadResp              83118                       # Transaction distribution
system.membus.trans_dist::WritebackDirty      8345873                       # Transaction distribution
system.membus.trans_dist::CleanEvict            15281                       # Transaction distribution
system.membus.trans_dist::ReadExReq           8295136                       # Transaction distribution
system.membus.trans_dist::ReadExResp          8295136                       # Transaction distribution
system.membus.trans_dist::ReadSharedReq         83118                       # Transaction distribution
system.membus.pkt_count_system.l2.mem_side::system.mem_ctrls.port     25117662                       # Packet count per connected master and slave (bytes)
system.membus.pkt_count_system.l2.mem_side::total     25117662                       # Packet count per connected master and slave (bytes)
system.membus.pkt_count::total               25117662                       # Packet count per connected master and slave (bytes)
system.membus.pkt_size_system.l2.mem_side::system.mem_ctrls.port   1070344128                       # Cumulative packet size per connected master and slave (bytes)
system.membus.pkt_size_system.l2.mem_side::total   1070344128                       # Cumulative packet size per connected master and slave (bytes)
system.membus.pkt_size::total              1070344128                       # Cumulative packet size per connected master and slave (bytes)
system.membus.snoops                                0                       # Total snoops (count)
system.membus.snoopTraffic                          0                       # Total snoop traffic (bytes)
system.membus.snoop_fanout::samples           8378254                       # Request fanout histogram
system.membus.snoop_fanout::mean                    0                       # Request fanout histogram
system.membus.snoop_fanout::stdev                   0                       # Request fanout histogram
system.membus.snoop_fanout::underflows              0      0.00%      0.00% # Request fanout histogram
system.membus.snoop_fanout::0                 8378254    100.00%    100.00% # Request fanout histogram
system.membus.snoop_fanout::1                       0      0.00%    100.00% # Request fanout histogram
system.membus.snoop_fanout::overflows               0      0.00%    100.00% # Request fanout histogram
system.membus.snoop_fanout::min_value               0                       # Request fanout histogram
system.membus.snoop_fanout::max_value               0                       # Request fanout histogram
system.membus.snoop_fanout::total             8378254                       # Request fanout histogram
system.membus.reqLayer2.occupancy         50132263500                       # Layer occupancy (ticks)
system.membus.reqLayer2.utilization               2.9                       # Layer utilization (%)
system.membus.respLayer1.occupancy        44082202250                       # Layer occupancy (ticks)
system.membus.respLayer1.utilization              2.5                       # Layer utilization (%)
system.tol2bus.snoop_filter.tot_requests     20878356                       # Total number of requests made to the snoop filter.
system.tol2bus.snoop_filter.hit_single_requests     10438211                       # Number of requests hitting in the snoop filter with a single holder of the requested data.
system.tol2bus.snoop_filter.hit_multi_requests            1                       # Number of requests hitting in the snoop filter with multiple (>1) holders of the requested data.
system.tol2bus.snoop_filter.tot_snoops           3761                       # Total number of snoops made to the snoop filter.
system.tol2bus.snoop_filter.hit_single_snoops         3761                       # Number of snoops hitting in the snoop filter with a single holder of the requested data.
system.tol2bus.snoop_filter.hit_multi_snoops            0                       # Number of snoops hitting in the snoop filter with multiple (>1) holders of the requested data.
system.tol2bus.pwrStateResidencyTicks::UNDEFINED 1731375002500                       # Cumulative time (in ticks) in various power states
system.tol2bus.trans_dist::ReadResp           1979150                       # Transaction distribution
system.tol2bus.trans_dist::WritebackDirty     17072424                       # Transaction distribution
system.tol2bus.trans_dist::WritebackClean      1460054                       # Transaction distribution
system.tol2bus.trans_dist::CleanEvict          269963                       # Transaction distribution
system.tol2bus.trans_dist::ReadExReq          8460995                       # Transaction distribution
system.tol2bus.trans_dist::ReadExResp         8460995                       # Transaction distribution
system.tol2bus.trans_dist::ReadCleanReq       1460964                       # Transaction distribution
system.tol2bus.trans_dist::ReadSharedReq       518186                       # Transaction distribution
system.tol2bus.pkt_count_system.cpu.icache.mem_side::system.l2.cpu_side      4381982                       # Packet count per connected master and slave (bytes)
system.tol2bus.pkt_count_system.cpu.dcache.mem_side::system.l2.cpu_side     26936519                       # Packet count per connected master and slave (bytes)
system.tol2bus.pkt_count::total              31318501                       # Packet count per connected master and slave (bytes)
system.tol2bus.pkt_size_system.cpu.icache.mem_side::system.l2.cpu_side    186945152                       # Cumulative packet size per connected master and slave (bytes)
system.tol2bus.pkt_size_system.cpu.dcache.mem_side::system.l2.cpu_side   1133166848                       # Cumulative packet size per connected master and slave (bytes)
system.tol2bus.pkt_size::total             1320112000                       # Cumulative packet size per connected master and slave (bytes)
system.tol2bus.snoops                         8364230                       # Total snoops (count)
system.tol2bus.snoopTraffic                 534135872                       # Total snoop traffic (bytes)
system.tol2bus.snoop_fanout::samples         18804375                       # Request fanout histogram
system.tol2bus.snoop_fanout::mean            0.000200                       # Request fanout histogram
system.tol2bus.snoop_fanout::stdev           0.014143                       # Request fanout histogram
system.tol2bus.snoop_fanout::underflows             0      0.00%      0.00% # Request fanout histogram
system.tol2bus.snoop_fanout::0               18800613     99.98%     99.98% # Request fanout histogram
system.tol2bus.snoop_fanout::1                   3762      0.02%    100.00% # Request fanout histogram
system.tol2bus.snoop_fanout::2                      0      0.00%    100.00% # Request fanout histogram
system.tol2bus.snoop_fanout::3                      0      0.00%    100.00% # Request fanout histogram
system.tol2bus.snoop_fanout::4                      0      0.00%    100.00% # Request fanout histogram
system.tol2bus.snoop_fanout::overflows              0      0.00%    100.00% # Request fanout histogram
system.tol2bus.snoop_fanout::min_value              0                       # Request fanout histogram
system.tol2bus.snoop_fanout::max_value              1                       # Request fanout histogram
system.tol2bus.snoop_fanout::total           18804375                       # Request fanout histogram
system.tol2bus.reqLayer0.occupancy        20625783000                       # Layer occupancy (ticks)
system.tol2bus.reqLayer0.utilization              1.2                       # Layer utilization (%)
system.tol2bus.respLayer0.occupancy        2191446000                       # Layer occupancy (ticks)
system.tol2bus.respLayer0.utilization             0.1                       # Layer utilization (%)
system.tol2bus.respLayer1.occupancy       13468771500                       # Layer occupancy (ticks)
system.tol2bus.respLayer1.utilization             0.8                       # Layer utilization (%)

---------- End Simulation Statistics   ----------
