
---------- Begin Simulation Statistics ----------
sim_seconds                                  1.734097                       # Number of seconds simulated
sim_ticks                                1734096946000                       # Number of ticks simulated
final_tick                               1734096946000                       # Number of ticks from beginning of simulation (restored from checkpoints and never reset)
sim_freq                                 1000000000000                       # Frequency of simulated ticks
host_inst_rate                                 422326                       # Simulator instruction rate (inst/s)
host_op_rate                                   695458                       # Simulator op (including micro ops) rate (op/s)
host_tick_rate                             1464708015                       # Simulator tick rate (ticks/s)
host_mem_usage                                 666100                       # Number of bytes of host memory used
host_seconds                                  1183.92                       # Real time elapsed on the host
sim_insts                                   500000000                       # Number of instructions simulated
sim_ops                                     823366692                       # Number of ops (including micro ops) simulated
system.voltage_domain.voltage                       1                       # Voltage in Volts
system.clk_domain.clock                          1000                       # Clock period in ticks
system.mem_ctrls.pwrStateResidencyTicks::UNDEFINED 1734096946000                       # Cumulative time (in ticks) in various power states
system.mem_ctrls.bytes_read::cpu.inst          168896                       # Number of bytes read from this memory
system.mem_ctrls.bytes_read::cpu.data       536078080                       # Number of bytes read from this memory
system.mem_ctrls.bytes_read::total          536246976                       # Number of bytes read from this memory
system.mem_ctrls.bytes_inst_read::cpu.inst       168896                       # Number of instructions bytes read from this memory
system.mem_ctrls.bytes_inst_read::total        168896                       # Number of instructions bytes read from this memory
system.mem_ctrls.bytes_written::writebacks    534152960                       # Number of bytes written to this memory
system.mem_ctrls.bytes_written::total       534152960                       # Number of bytes written to this memory
system.mem_ctrls.num_reads::cpu.inst             2639                       # Number of read requests responded to by this memory
system.mem_ctrls.num_reads::cpu.data          8376220                       # Number of read requests responded to by this memory
system.mem_ctrls.num_reads::total             8378859                       # Number of read requests responded to by this memory
system.mem_ctrls.num_writes::writebacks       8346140                       # Number of write requests responded to by this memory
system.mem_ctrls.num_writes::total            8346140                       # Number of write requests responded to by this memory
system.mem_ctrls.bw_read::cpu.inst              97397                       # Total read bandwidth from this memory (bytes/s)
system.mem_ctrls.bw_read::cpu.data          309139625                       # Total read bandwidth from this memory (bytes/s)
system.mem_ctrls.bw_read::total             309237022                       # Total read bandwidth from this memory (bytes/s)
system.mem_ctrls.bw_inst_read::cpu.inst         97397                       # Instruction read bandwidth from this memory (bytes/s)
system.mem_ctrls.bw_inst_read::total            97397                       # Instruction read bandwidth from this memory (bytes/s)
system.mem_ctrls.bw_write::writebacks       308029468                       # Write bandwidth from this memory (bytes/s)
system.mem_ctrls.bw_write::total            308029468                       # Write bandwidth from this memory (bytes/s)
system.mem_ctrls.bw_total::writebacks       308029468                       # Total bandwidth to/from this memory (bytes/s)
system.mem_ctrls.bw_total::cpu.inst             97397                       # Total bandwidth to/from this memory (bytes/s)
system.mem_ctrls.bw_total::cpu.data         309139625                       # Total bandwidth to/from this memory (bytes/s)
system.mem_ctrls.bw_total::total            617266490                       # Total bandwidth to/from this memory (bytes/s)
system.mem_ctrls.readReqs                     8378859                       # Number of read requests accepted
system.mem_ctrls.writeReqs                    8346140                       # Number of write requests accepted
system.mem_ctrls.readBursts                   8378859                       # Number of DRAM read bursts, including those serviced by the write queue
system.mem_ctrls.writeBursts                  8346140                       # Number of DRAM write bursts, including those merged in the write queue
system.mem_ctrls.bytesReadDRAM              536243840                       # Total number of bytes read from DRAM
system.mem_ctrls.bytesReadWrQ                    3136                       # Total number of bytes read from write queue
system.mem_ctrls.bytesWritten               534151744                       # Total number of bytes written to DRAM
system.mem_ctrls.bytesReadSys               536246976                       # Total read bytes from the system interface side
system.mem_ctrls.bytesWrittenSys            534152960                       # Total written bytes from the system interface side
system.mem_ctrls.servicedByWrQ                     49                       # Number of DRAM read bursts serviced by the write queue
system.mem_ctrls.mergedWrBursts                     0                       # Number of DRAM write bursts merged with an existing one
system.mem_ctrls.neitherReadNorWriteReqs            0                       # Number of requests that are neither read nor write
system.mem_ctrls.perBankRdBursts::0            523451                       # Per bank write bursts
system.mem_ctrls.perBankRdBursts::1            523197                       # Per bank write bursts
system.mem_ctrls.perBankRdBursts::2            523386                       # Per bank write bursts
system.mem_ctrls.perBankRdBursts::3            523967                       # Per bank write bursts
system.mem_ctrls.perBankRdBursts::4            523848                       # Per bank write bursts
system.mem_ctrls.perBankRdBursts::5            523797                       # Per bank write bursts
system.mem_ctrls.perBankRdBursts::6            523623                       # Per bank write bursts
system.mem_ctrls.perBankRdBursts::7            523727                       # Per bank write bursts
system.mem_ctrls.perBankRdBursts::8            523180                       # Per bank write bursts
system.mem_ctrls.perBankRdBursts::9            523599                       # Per bank write bursts
system.mem_ctrls.perBankRdBursts::10           523788                       # Per bank write bursts
system.mem_ctrls.perBankRdBursts::11           524084                       # Per bank write bursts
system.mem_ctrls.perBankRdBursts::12           523975                       # Per bank write bursts
system.mem_ctrls.perBankRdBursts::13           523799                       # Per bank write bursts
system.mem_ctrls.perBankRdBursts::14           523608                       # Per bank write bursts
system.mem_ctrls.perBankRdBursts::15           523781                       # Per bank write bursts
system.mem_ctrls.perBankWrBursts::0            521547                       # Per bank write bursts
system.mem_ctrls.perBankWrBursts::1            521340                       # Per bank write bursts
system.mem_ctrls.perBankWrBursts::2            521568                       # Per bank write bursts
system.mem_ctrls.perBankWrBursts::3            521830                       # Per bank write bursts
system.mem_ctrls.perBankWrBursts::4            521635                       # Per bank write bursts
system.mem_ctrls.perBankWrBursts::5            521799                       # Per bank write bursts
system.mem_ctrls.perBankWrBursts::6            521537                       # Per bank write bursts
system.mem_ctrls.perBankWrBursts::7            521577                       # Per bank write bursts
system.mem_ctrls.perBankWrBursts::8            521326                       # Per bank write bursts
system.mem_ctrls.perBankWrBursts::9            521489                       # Per bank write bursts
system.mem_ctrls.perBankWrBursts::10           521633                       # Per bank write bursts
system.mem_ctrls.perBankWrBursts::11           521799                       # Per bank write bursts
system.mem_ctrls.perBankWrBursts::12           521844                       # Per bank write bursts
system.mem_ctrls.perBankWrBursts::13           521824                       # Per bank write bursts
system.mem_ctrls.perBankWrBursts::14           521684                       # Per bank write bursts
system.mem_ctrls.perBankWrBursts::15           521689                       # Per bank write bursts
system.mem_ctrls.numRdRetry                         0                       # Number of times read queue was full causing retry
system.mem_ctrls.numWrRetry                         0                       # Number of times write queue was full causing retry
system.mem_ctrls.totGap                  1734073507500                       # Total gap between requests
system.mem_ctrls.readPktSize::0                     0                       # Read request sizes (log2)
system.mem_ctrls.readPktSize::1                     0                       # Read request sizes (log2)
system.mem_ctrls.readPktSize::2                     0                       # Read request sizes (log2)
system.mem_ctrls.readPktSize::3                     0                       # Read request sizes (log2)
system.mem_ctrls.readPktSize::4                     0                       # Read request sizes (log2)
system.mem_ctrls.readPktSize::5                     0                       # Read request sizes (log2)
system.mem_ctrls.readPktSize::6               8378859                       # Read request sizes (log2)
system.mem_ctrls.writePktSize::0                    0                       # Write request sizes (log2)
system.mem_ctrls.writePktSize::1                    0                       # Write request sizes (log2)
system.mem_ctrls.writePktSize::2                    0                       # Write request sizes (log2)
system.mem_ctrls.writePktSize::3                    0                       # Write request sizes (log2)
system.mem_ctrls.writePktSize::4                    0                       # Write request sizes (log2)
system.mem_ctrls.writePktSize::5                    0                       # Write request sizes (log2)
system.mem_ctrls.writePktSize::6              8346140                       # Write request sizes (log2)
system.mem_ctrls.rdQLenPdf::0                 8378809                       # What read queue length does an incoming req see
system.mem_ctrls.rdQLenPdf::1                       1                       # What read queue length does an incoming req see
system.mem_ctrls.rdQLenPdf::2                       0                       # What read queue length does an incoming req see
system.mem_ctrls.rdQLenPdf::3                       0                       # What read queue length does an incoming req see
system.mem_ctrls.rdQLenPdf::4                       0                       # What read queue length does an incoming req see
system.mem_ctrls.rdQLenPdf::5                       0                       # What read queue length does an incoming req see
system.mem_ctrls.rdQLenPdf::6                       0                       # What read queue length does an incoming req see
system.mem_ctrls.rdQLenPdf::7                       0                       # What read queue length does an incoming req see
system.mem_ctrls.rdQLenPdf::8                       0                       # What read queue length does an incoming req see
system.mem_ctrls.rdQLenPdf::9                       0                       # What read queue length does an incoming req see
system.mem_ctrls.rdQLenPdf::10                      0                       # What read queue length does an incoming req see
system.mem_ctrls.rdQLenPdf::11                      0                       # What read queue length does an incoming req see
system.mem_ctrls.rdQLenPdf::12                      0                       # What read queue length does an incoming req see
system.mem_ctrls.rdQLenPdf::13                      0                       # What read queue length does an incoming req see
system.mem_ctrls.rdQLenPdf::14                      0                       # What read queue length does an incoming req see
system.mem_ctrls.rdQLenPdf::15                      0                       # What read queue length does an incoming req see
system.mem_ctrls.rdQLenPdf::16                      0                       # What read queue length does an incoming req see
system.mem_ctrls.rdQLenPdf::17                      0                       # What read queue length does an incoming req see
system.mem_ctrls.rdQLenPdf::18                      0                       # What read queue length does an incoming req see
system.mem_ctrls.rdQLenPdf::19                      0                       # What read queue length does an incoming req see
system.mem_ctrls.rdQLenPdf::20                      0                       # What read queue length does an incoming req see
system.mem_ctrls.rdQLenPdf::21                      0                       # What read queue length does an incoming req see
system.mem_ctrls.rdQLenPdf::22                      0                       # What read queue length does an incoming req see
system.mem_ctrls.rdQLenPdf::23                      0                       # What read queue length does an incoming req see
system.mem_ctrls.rdQLenPdf::24                      0                       # What read queue length does an incoming req see
system.mem_ctrls.rdQLenPdf::25                      0                       # What read queue length does an incoming req see
system.mem_ctrls.rdQLenPdf::26                      0                       # What read queue length does an incoming req see
system.mem_ctrls.rdQLenPdf::27                      0                       # What read queue length does an incoming req see
system.mem_ctrls.rdQLenPdf::28                      0                       # What read queue length does an incoming req see
system.mem_ctrls.rdQLenPdf::29                      0                       # What read queue length does an incoming req see
system.mem_ctrls.rdQLenPdf::30                      0                       # What read queue length does an incoming req see
system.mem_ctrls.rdQLenPdf::31                      0                       # What read queue length does an incoming req see
system.mem_ctrls.wrQLenPdf::0                       1                       # What write queue length does an incoming req see
system.mem_ctrls.wrQLenPdf::1                       1                       # What write queue length does an incoming req see
system.mem_ctrls.wrQLenPdf::2                       1                       # What write queue length does an incoming req see
system.mem_ctrls.wrQLenPdf::3                       1                       # What write queue length does an incoming req see
system.mem_ctrls.wrQLenPdf::4                       1                       # What write queue length does an incoming req see
system.mem_ctrls.wrQLenPdf::5                       1                       # What write queue length does an incoming req see
system.mem_ctrls.wrQLenPdf::6                       1                       # What write queue length does an incoming req see
system.mem_ctrls.wrQLenPdf::7                       1                       # What write queue length does an incoming req see
system.mem_ctrls.wrQLenPdf::8                       1                       # What write queue length does an incoming req see
system.mem_ctrls.wrQLenPdf::9                       1                       # What write queue length does an incoming req see
system.mem_ctrls.wrQLenPdf::10                      1                       # What write queue length does an incoming req see
system.mem_ctrls.wrQLenPdf::11                      1                       # What write queue length does an incoming req see
system.mem_ctrls.wrQLenPdf::12                      1                       # What write queue length does an incoming req see
system.mem_ctrls.wrQLenPdf::13                      1                       # What write queue length does an incoming req see
system.mem_ctrls.wrQLenPdf::14                      1                       # What write queue length does an incoming req see
system.mem_ctrls.wrQLenPdf::15                   5018                       # What write queue length does an incoming req see
system.mem_ctrls.wrQLenPdf::16                   5066                       # What write queue length does an incoming req see
system.mem_ctrls.wrQLenPdf::17                 520958                       # What write queue length does an incoming req see
system.mem_ctrls.wrQLenPdf::18                 521003                       # What write queue length does an incoming req see
system.mem_ctrls.wrQLenPdf::19                 521001                       # What write queue length does an incoming req see
system.mem_ctrls.wrQLenPdf::20                 521001                       # What write queue length does an incoming req see
system.mem_ctrls.wrQLenPdf::21                 521002                       # What write queue length does an incoming req see
system.mem_ctrls.wrQLenPdf::22                 521002                       # What write queue length does an incoming req see
system.mem_ctrls.wrQLenPdf::23                 521002                       # What write queue length does an incoming req see
system.mem_ctrls.wrQLenPdf::24                 521002                       # What write queue length does an incoming req see
system.mem_ctrls.wrQLenPdf::25                 521002                       # What write queue length does an incoming req see
system.mem_ctrls.wrQLenPdf::26                 521006                       # What write queue length does an incoming req see
system.mem_ctrls.wrQLenPdf::27                 521006                       # What write queue length does an incoming req see
system.mem_ctrls.wrQLenPdf::28                 521008                       # What write queue length does an incoming req see
system.mem_ctrls.wrQLenPdf::29                 521039                       # What write queue length does an incoming req see
system.mem_ctrls.wrQLenPdf::30                 521006                       # What write queue length does an incoming req see
system.mem_ctrls.wrQLenPdf::31                 521002                       # What write queue length does an incoming req see
system.mem_ctrls.wrQLenPdf::32                 521001                       # What write queue length does an incoming req see
system.mem_ctrls.wrQLenPdf::33                      0                       # What write queue length does an incoming req see
system.mem_ctrls.wrQLenPdf::34                      0                       # What write queue length does an incoming req see
system.mem_ctrls.wrQLenPdf::35                      0                       # What write queue length does an incoming req see
system.mem_ctrls.wrQLenPdf::36                      0                       # What write queue length does an incoming req see
system.mem_ctrls.wrQLenPdf::37                      0                       # What write queue length does an incoming req see
system.mem_ctrls.wrQLenPdf::38                      0                       # What write queue length does an incoming req see
system.mem_ctrls.wrQLenPdf::39                      0                       # What write queue length does an incoming req see
system.mem_ctrls.wrQLenPdf::40                      0                       # What write queue length does an incoming req see
system.mem_ctrls.wrQLenPdf::41                      0                       # What write queue length does an incoming req see
system.mem_ctrls.wrQLenPdf::42                      0                       # What write queue length does an incoming req see
system.mem_ctrls.wrQLenPdf::43                      0                       # What write queue length does an incoming req see
system.mem_ctrls.wrQLenPdf::44                      0                       # What write queue length does an incoming req see
system.mem_ctrls.wrQLenPdf::45                      0                       # What write queue length does an incoming req see
system.mem_ctrls.wrQLenPdf::46                      0                       # What write queue length does an incoming req see
system.mem_ctrls.wrQLenPdf::47                      0                       # What write queue length does an incoming req see
system.mem_ctrls.wrQLenPdf::48                      0                       # What write queue length does an incoming req see
system.mem_ctrls.wrQLenPdf::49                      0                       # What write queue length does an incoming req see
system.mem_ctrls.wrQLenPdf::50                      0                       # What write queue length does an incoming req see
system.mem_ctrls.wrQLenPdf::51                      0                       # What write queue length does an incoming req see
system.mem_ctrls.wrQLenPdf::52                      0                       # What write queue length does an incoming req see
system.mem_ctrls.wrQLenPdf::53                      0                       # What write queue length does an incoming req see
system.mem_ctrls.wrQLenPdf::54                      0                       # What write queue length does an incoming req see
system.mem_ctrls.wrQLenPdf::55                      0                       # What write queue length does an incoming req see
system.mem_ctrls.wrQLenPdf::56                      0                       # What write queue length does an incoming req see
system.mem_ctrls.wrQLenPdf::57                      0                       # What write queue length does an incoming req see
system.mem_ctrls.wrQLenPdf::58                      0                       # What write queue length does an incoming req see
system.mem_ctrls.wrQLenPdf::59                      0                       # What write queue length does an incoming req see
system.mem_ctrls.wrQLenPdf::60                      0                       # What write queue length does an incoming req see
system.mem_ctrls.wrQLenPdf::61                      0                       # What write queue length does an incoming req see
system.mem_ctrls.wrQLenPdf::62                      0                       # What write queue length does an incoming req see
system.mem_ctrls.wrQLenPdf::63                      0                       # What write queue length does an incoming req see
system.mem_ctrls.bytesPerActivate::samples      1398532                       # Bytes accessed per row activation
system.mem_ctrls.bytesPerActivate::mean    765.370820                       # Bytes accessed per row activation
system.mem_ctrls.bytesPerActivate::gmean   558.129560                       # Bytes accessed per row activation
system.mem_ctrls.bytesPerActivate::stdev   378.624588                       # Bytes accessed per row activation
system.mem_ctrls.bytesPerActivate::0-127       213571     15.27%     15.27% # Bytes accessed per row activation
system.mem_ctrls.bytesPerActivate::128-255        48630      3.48%     18.75% # Bytes accessed per row activation
system.mem_ctrls.bytesPerActivate::256-383        34210      2.45%     21.19% # Bytes accessed per row activation
system.mem_ctrls.bytesPerActivate::384-511        53892      3.85%     25.05% # Bytes accessed per row activation
system.mem_ctrls.bytesPerActivate::512-639        66033      4.72%     29.77% # Bytes accessed per row activation
system.mem_ctrls.bytesPerActivate::640-767        35241      2.52%     32.29% # Bytes accessed per row activation
system.mem_ctrls.bytesPerActivate::768-895        21518      1.54%     33.83% # Bytes accessed per row activation
system.mem_ctrls.bytesPerActivate::896-1023        86050      6.15%     39.98% # Bytes accessed per row activation
system.mem_ctrls.bytesPerActivate::1024-1151       839387     60.02%    100.00% # Bytes accessed per row activation
system.mem_ctrls.bytesPerActivate::total      1398532                       # Bytes accessed per row activation
system.mem_ctrls.rdPerTurnAround::samples       521001                       # Reads before turning the bus around for writes
system.mem_ctrls.rdPerTurnAround::mean      16.082128                       # Reads before turning the bus around for writes
system.mem_ctrls.rdPerTurnAround::gmean     16.043885                       # Reads before turning the bus around for writes
system.mem_ctrls.rdPerTurnAround::stdev     13.702862                       # Reads before turning the bus around for writes
system.mem_ctrls.rdPerTurnAround::0-511        520997    100.00%    100.00% # Reads before turning the bus around for writes
system.mem_ctrls.rdPerTurnAround::1024-1535            1      0.00%    100.00% # Reads before turning the bus around for writes
system.mem_ctrls.rdPerTurnAround::1536-2047            1      0.00%    100.00% # Reads before turning the bus around for writes
system.mem_ctrls.rdPerTurnAround::2560-3071            1      0.00%    100.00% # Reads before turning the bus around for writes
system.mem_ctrls.rdPerTurnAround::9216-9727            1      0.00%    100.00% # Reads before turning the bus around for writes
system.mem_ctrls.rdPerTurnAround::total        521001                       # Reads before turning the bus around for writes
system.mem_ctrls.wrPerTurnAround::samples       521001                       # Writes before turning the bus around for reads
system.mem_ctrls.wrPerTurnAround::mean      16.019395                       # Writes before turning the bus around for reads
system.mem_ctrls.wrPerTurnAround::gmean     16.018285                       # Writes before turning the bus around for reads
system.mem_ctrls.wrPerTurnAround::stdev      0.196099                       # Writes before turning the bus around for reads
system.mem_ctrls.wrPerTurnAround::16           515936     99.03%     99.03% # Writes before turning the bus around for reads
system.mem_ctrls.wrPerTurnAround::17               47      0.01%     99.04% # Writes before turning the bus around for reads
system.mem_ctrls.wrPerTurnAround::18             4997      0.96%    100.00% # Writes before turning the bus around for reads
system.mem_ctrls.wrPerTurnAround::19               20      0.00%    100.00% # Writes before turning the bus around for reads
system.mem_ctrls.wrPerTurnAround::20                1      0.00%    100.00% # Writes before turning the bus around for reads
system.mem_ctrls.wrPerTurnAround::total        521001                       # Writes before turning the bus around for reads
system.mem_ctrls.totQLat                 163995528000                       # Total ticks spent queuing
system.mem_ctrls.totMemAccLat            321098215500                       # Total ticks spent from burst creation until serviced by the DRAM
system.mem_ctrls.totBusLat                41894050000                       # Total ticks spent in databus transfers
system.mem_ctrls.avgQLat                     19572.65                       # Average queueing delay per DRAM burst
system.mem_ctrls.avgBusLat                    5000.00                       # Average bus latency per DRAM burst
system.mem_ctrls.avgMemAccLat                38322.65                       # Average memory access latency per DRAM burst
system.mem_ctrls.avgRdBW                       309.24                       # Average DRAM read bandwidth in MiByte/s
system.mem_ctrls.avgWrBW                       308.03                       # Average achieved write bandwidth in MiByte/s
system.mem_ctrls.avgRdBWSys                    309.24                       # Average system read bandwidth in MiByte/s
system.mem_ctrls.avgWrBWSys                    308.03                       # Average system write bandwidth in MiByte/s
system.mem_ctrls.peakBW                      12800.00                       # Theoretical peak bandwidth in MiByte/s
system.mem_ctrls.busUtil                         4.82                       # Data bus utilization in percentage
system.mem_ctrls.busUtilRead                     2.42                       # Data bus utilization in percentage for reads
system.mem_ctrls.busUtilWrite                    2.41                       # Data bus utilization in percentage for writes
system.mem_ctrls.avgRdQLen                       1.00                       # Average read queue length when enqueuing
system.mem_ctrls.avgWrQLen                      25.25                       # Average write queue length when enqueuing
system.mem_ctrls.readRowHits                  7627052                       # Number of row buffer hits during reads
system.mem_ctrls.writeRowHits                 7699347                       # Number of row buffer hits during writes
system.mem_ctrls.readRowHitRate                 91.03                       # Row buffer hit rate for reads
system.mem_ctrls.writeRowHitRate                92.25                       # Row buffer hit rate for writes
system.mem_ctrls.avgGap                     103681.53                       # Average gap between requests
system.mem_ctrls.pageHitRate                    91.64                       # Row buffer hit rate, read and write combined
system.mem_ctrls_0.actEnergy               4998928200                       # Energy for activate commands per rank (pJ)
system.mem_ctrls_0.preEnergy               2656993350                       # Energy for precharge commands per rank (pJ)
system.mem_ctrls_0.readEnergy             29909431440                       # Energy for read commands per rank (pJ)
system.mem_ctrls_0.writeEnergy            21782188260                       # Energy for write commands per rank (pJ)
system.mem_ctrls_0.refreshEnergy         85048351440.000015                       # Energy for refresh commands per rank (pJ)
system.mem_ctrls_0.actBackEnergy          95084687370                       # Energy for active background per rank (pJ)
system.mem_ctrls_0.preBackEnergy           6873600000                       # Energy for precharge background per rank (pJ)
system.mem_ctrls_0.actPowerDownEnergy    201623348610                       # Energy for active power-down per rank (pJ)
system.mem_ctrls_0.prePowerDownEnergy     86522543040                       # Energy for precharge power-down per rank (pJ)
system.mem_ctrls_0.selfRefreshEnergy     215631495120                       # Energy for self refresh per rank (pJ)
system.mem_ctrls_0.totalEnergy           750154347030                       # Total energy per rank (pJ)
system.mem_ctrls_0.averagePower            432.590776                       # Core power per rank (mW)
system.mem_ctrls_0.totalIdleTime         1507638145500                       # Total Idle time Per DRAM Rank
system.mem_ctrls_0.memoryStateTime::IDLE   9908140500                       # Time in different power states
system.mem_ctrls_0.memoryStateTime::REF   36137764000                       # Time in different power states
system.mem_ctrls_0.memoryStateTime::SREF 840151306750                       # Time in different power states
system.mem_ctrls_0.memoryStateTime::PRE_PDN 225324364750                       # Time in different power states
system.mem_ctrls_0.memoryStateTime::ACT  180397805250                       # Time in different power states
system.mem_ctrls_0.memoryStateTime::ACT_PDN 442177564750                       # Time in different power states
system.mem_ctrls_1.actEnergy               4986590280                       # Energy for activate commands per rank (pJ)
system.mem_ctrls_1.preEnergy               2650435590                       # Energy for precharge commands per rank (pJ)
system.mem_ctrls_1.readEnergy             29915271960                       # Energy for read commands per rank (pJ)
system.mem_ctrls_1.writeEnergy            21784563360                       # Energy for write commands per rank (pJ)
system.mem_ctrls_1.refreshEnergy         84603966720.000015                       # Energy for refresh commands per rank (pJ)
system.mem_ctrls_1.actBackEnergy          94870897470                       # Energy for active background per rank (pJ)
system.mem_ctrls_1.preBackEnergy           6870544320                       # Energy for precharge background per rank (pJ)
system.mem_ctrls_1.actPowerDownEnergy    201025705320                       # Energy for active power-down per rank (pJ)
system.mem_ctrls_1.prePowerDownEnergy     85857563520                       # Energy for precharge power-down per rank (pJ)
system.mem_ctrls_1.selfRefreshEnergy     216315826110                       # Energy for self refresh per rank (pJ)
system.mem_ctrls_1.totalEnergy           748907224470                       # Total energy per rank (pJ)
system.mem_ctrls_1.averagePower            431.871599                       # Core power per rank (mW)
system.mem_ctrls_1.totalIdleTime         1508091407000                       # Total Idle time Per DRAM Rank
system.mem_ctrls_1.memoryStateTime::IDLE   9853364000                       # Time in different power states
system.mem_ctrls_1.memoryStateTime::REF   35943106000                       # Time in different power states
system.mem_ctrls_1.memoryStateTime::SREF 843663692500                       # Time in different power states
system.mem_ctrls_1.memoryStateTime::PRE_PDN 223593863250                       # Time in different power states
system.mem_ctrls_1.memoryStateTime::ACT  180142492500                       # Time in different power states
system.mem_ctrls_1.memoryStateTime::ACT_PDN 440900427750                       # Time in different power states
system.pwrStateResidencyTicks::UNDEFINED 1734096946000                       # Cumulative time (in ticks) in various power states
system.cpu_voltage_domain.voltage                   1                       # Voltage in Volts
system.cpu_clk_domain.clock                       500                       # Clock period in ticks
system.cpu.dtb.walker.pwrStateResidencyTicks::UNDEFINED 1734096946000                       # Cumulative time (in ticks) in various power states
system.cpu.apic_clk_domain.clock                 8000                       # Clock period in ticks
system.cpu.interrupts.pwrStateResidencyTicks::UNDEFINED 1734096946000                       # Cumulative time (in ticks) in various power states
system.cpu.itb.walker.pwrStateResidencyTicks::UNDEFINED 1734096946000                       # Cumulative time (in ticks) in various power states
system.cpu.workload.num_syscalls                  196                       # Number of system calls
system.cpu.pwrStateResidencyTicks::ON    1734096946000                       # Cumulative time (in ticks) in various power states
system.cpu.numCycles                       3468193892                       # number of cpu cycles simulated
system.cpu.numWorkItemsStarted                      0                       # number of work items this cpu started
system.cpu.numWorkItemsCompleted                    0                       # number of work items this cpu completed
system.cpu.committedInsts                   500000000                       # Number of instructions committed
system.cpu.committedOps                     823366692                       # Number of ops (including micro ops) committed
system.cpu.num_int_alu_accesses             821415783                       # Number of integer alu accesses
system.cpu.num_fp_alu_accesses               66619246                       # Number of float alu accesses
system.cpu.num_func_calls                     5652773                       # number of times a function call or return occured
system.cpu.num_conditional_control_insts     57208853                       # number of instructions that are conditional controls
system.cpu.num_int_insts                    821415783                       # number of integer instructions
system.cpu.num_fp_insts                      66619246                       # number of float instructions
system.cpu.num_int_register_reads          1637209917                       # number of times the integer registers were read
system.cpu.num_int_register_writes          639871082                       # number of times the integer registers were written
system.cpu.num_fp_register_reads             66766836                       # number of times the floating registers were read
system.cpu.num_fp_register_writes              208042                       # number of times the floating registers were written
system.cpu.num_cc_register_reads            319714243                       # number of times the CC registers were read
system.cpu.num_cc_register_writes           287984022                       # number of times the CC registers were written
system.cpu.num_mem_refs                     271673939                       # number of memory refs
system.cpu.num_load_insts                   157213791                       # Number of load instructions
system.cpu.num_store_insts                  114460148                       # Number of store instructions
system.cpu.num_idle_cycles                          0                       # Number of idle cycles
system.cpu.num_busy_cycles                 3468193892                       # Number of busy cycles
system.cpu.not_idle_fraction                        1                       # Percentage of non-idle cycles
system.cpu.idle_fraction                            0                       # Percentage of idle cycles
system.cpu.Branches                          69678400                       # Number of branches fetched
system.cpu.op_class::No_OpClass                202234      0.02%      0.02% # Class of executed instruction
system.cpu.op_class::IntAlu                 550028817     66.80%     66.83% # Class of executed instruction
system.cpu.op_class::IntMult                   125092      0.02%     66.84% # Class of executed instruction
system.cpu.op_class::IntDiv                   1153479      0.14%     66.98% # Class of executed instruction
system.cpu.op_class::FloatAdd                  183131      0.02%     67.00% # Class of executed instruction
system.cpu.op_class::FloatCmp                       0      0.00%     67.00% # Class of executed instruction
system.cpu.op_class::FloatCvt                       0      0.00%     67.00% # Class of executed instruction
system.cpu.op_class::FloatMult                      0      0.00%     67.00% # Class of executed instruction
system.cpu.op_class::FloatDiv                       0      0.00%     67.00% # Class of executed instruction
system.cpu.op_class::FloatSqrt                      0      0.00%     67.00% # Class of executed instruction
system.cpu.op_class::SimdAdd                        0      0.00%     67.00% # Class of executed instruction
system.cpu.op_class::SimdAddAcc                     0      0.00%     67.00% # Class of executed instruction
system.cpu.op_class::SimdAlu                        0      0.00%     67.00% # Class of executed instruction
system.cpu.op_class::SimdCmp                        0      0.00%     67.00% # Class of executed instruction
system.cpu.op_class::SimdCvt                        0      0.00%     67.00% # Class of executed instruction
system.cpu.op_class::SimdMisc                       0      0.00%     67.00% # Class of executed instruction
system.cpu.op_class::SimdMult                       0      0.00%     67.00% # Class of executed instruction
system.cpu.op_class::SimdMultAcc                    0      0.00%     67.00% # Class of executed instruction
system.cpu.op_class::SimdShift                      0      0.00%     67.00% # Class of executed instruction
system.cpu.op_class::SimdShiftAcc                   0      0.00%     67.00% # Class of executed instruction
system.cpu.op_class::SimdSqrt                       0      0.00%     67.00% # Class of executed instruction
system.cpu.op_class::SimdFloatAdd                   0      0.00%     67.00% # Class of executed instruction
system.cpu.op_class::SimdFloatAlu                   0      0.00%     67.00% # Class of executed instruction
system.cpu.op_class::SimdFloatCmp                   0      0.00%     67.00% # Class of executed instruction
system.cpu.op_class::SimdFloatCvt                   0      0.00%     67.00% # Class of executed instruction
system.cpu.op_class::SimdFloatDiv                   0      0.00%     67.00% # Class of executed instruction
system.cpu.op_class::SimdFloatMisc                  0      0.00%     67.00% # Class of executed instruction
system.cpu.op_class::SimdFloatMult                  0      0.00%     67.00% # Class of executed instruction
system.cpu.op_class::SimdFloatMultAcc               0      0.00%     67.00% # Class of executed instruction
system.cpu.op_class::SimdFloatSqrt                  0      0.00%     67.00% # Class of executed instruction
system.cpu.op_class::MemRead                157213791     19.09%     86.10% # Class of executed instruction
system.cpu.op_class::MemWrite               114460148     13.90%    100.00% # Class of executed instruction
system.cpu.op_class::IprAccess                      0      0.00%    100.00% # Class of executed instruction
system.cpu.op_class::InstPrefetch                   0      0.00%    100.00% # Class of executed instruction
system.cpu.op_class::total                  823366692                       # Class of executed instruction
system.cpu.dcache.tags.pwrStateResidencyTicks::UNDEFINED 1734096946000                       # Cumulative time (in ticks) in various power states
system.cpu.dcache.tags.replacements           8555630                       # number of replacements
system.cpu.dcache.tags.tagsinuse          1023.711672                       # Cycle average of tags in use
system.cpu.dcache.tags.total_refs           263117889                       # Total number of references to valid blocks.
system.cpu.dcache.tags.sampled_refs           8556654                       # Sample count of references to valid blocks.
system.cpu.dcache.tags.avg_refs             30.750091                       # Average number of references to valid blocks.
system.cpu.dcache.tags.warmup_cycle        5629363500                       # Cycle when the warmup percentage was hit.
system.cpu.dcache.tags.occ_blocks::cpu.data  1023.711672                       # Average occupied blocks per requestor
system.cpu.dcache.tags.occ_percent::cpu.data     0.999718                       # Average percentage of cache occupancy
system.cpu.dcache.tags.occ_percent::total     0.999718                       # Average percentage of cache occupancy
system.cpu.dcache.tags.occ_task_id_blocks::1024         1024                       # Occupied blocks per task id
system.cpu.dcache.tags.age_task_id_blocks_1024::0            1                       # Occupied blocks per task id
system.cpu.dcache.tags.age_task_id_blocks_1024::1           38                       # Occupied blocks per task id
system.cpu.dcache.tags.age_task_id_blocks_1024::2          147                       # Occupied blocks per task id
system.cpu.dcache.tags.age_task_id_blocks_1024::3          512                       # Occupied blocks per task id
system.cpu.dcache.tags.age_task_id_blocks_1024::4          326                       # Occupied blocks per task id
system.cpu.dcache.tags.occ_task_id_percent::1024            1                       # Percentage of cache occupancy per task id
system.cpu.dcache.tags.tag_accesses         551905740                       # Number of tag accesses
system.cpu.dcache.tags.data_accesses        551905740                       # Number of data accesses
system.cpu.dcache.pwrStateResidencyTicks::UNDEFINED 1734096946000                       # Cumulative time (in ticks) in various power states
system.cpu.dcache.ReadReq_hits::cpu.data    157023057                       # number of ReadReq hits
system.cpu.dcache.ReadReq_hits::total       157023057                       # number of ReadReq hits
system.cpu.dcache.WriteReq_hits::cpu.data    106094832                       # number of WriteReq hits
system.cpu.dcache.WriteReq_hits::total      106094832                       # number of WriteReq hits
system.cpu.dcache.demand_hits::cpu.data     263117889                       # number of demand (read+write) hits
system.cpu.dcache.demand_hits::total        263117889                       # number of demand (read+write) hits
system.cpu.dcache.overall_hits::cpu.data    263117889                       # number of overall hits
system.cpu.dcache.overall_hits::total       263117889                       # number of overall hits
system.cpu.dcache.ReadReq_misses::cpu.data       191326                       # number of ReadReq misses
system.cpu.dcache.ReadReq_misses::total        191326                       # number of ReadReq misses
system.cpu.dcache.WriteReq_misses::cpu.data      8365328                       # number of WriteReq misses
system.cpu.dcache.WriteReq_misses::total      8365328                       # number of WriteReq misses
system.cpu.dcache.demand_misses::cpu.data      8556654                       # number of demand (read+write) misses
system.cpu.dcache.demand_misses::total        8556654                       # number of demand (read+write) misses
system.cpu.dcache.overall_misses::cpu.data      8556654                       # number of overall misses
system.cpu.dcache.overall_misses::total       8556654                       # number of overall misses
system.cpu.dcache.ReadReq_miss_latency::cpu.data  28269997500                       # number of ReadReq miss cycles
system.cpu.dcache.ReadReq_miss_latency::total  28269997500                       # number of ReadReq miss cycles
system.cpu.dcache.WriteReq_miss_latency::cpu.data 741049282500                       # number of WriteReq miss cycles
system.cpu.dcache.WriteReq_miss_latency::total 741049282500                       # number of WriteReq miss cycles
system.cpu.dcache.demand_miss_latency::cpu.data 769319280000                       # number of demand (read+write) miss cycles
system.cpu.dcache.demand_miss_latency::total 769319280000                       # number of demand (read+write) miss cycles
system.cpu.dcache.overall_miss_latency::cpu.data 769319280000                       # number of overall miss cycles
system.cpu.dcache.overall_miss_latency::total 769319280000                       # number of overall miss cycles
system.cpu.dcache.ReadReq_accesses::cpu.data    157214383                       # number of ReadReq accesses(hits+misses)
system.cpu.dcache.ReadReq_accesses::total    157214383                       # number of ReadReq accesses(hits+misses)
system.cpu.dcache.WriteReq_accesses::cpu.data    114460160                       # number of WriteReq accesses(hits+misses)
system.cpu.dcache.WriteReq_accesses::total    114460160                       # number of WriteReq accesses(hits+misses)
system.cpu.dcache.demand_accesses::cpu.data    271674543                       # number of demand (read+write) accesses
system.cpu.dcache.demand_accesses::total    271674543                       # number of demand (read+write) accesses
system.cpu.dcache.overall_accesses::cpu.data    271674543                       # number of overall (read+write) accesses
system.cpu.dcache.overall_accesses::total    271674543                       # number of overall (read+write) accesses
system.cpu.dcache.ReadReq_miss_rate::cpu.data     0.001217                       # miss rate for ReadReq accesses
system.cpu.dcache.ReadReq_miss_rate::total     0.001217                       # miss rate for ReadReq accesses
system.cpu.dcache.WriteReq_miss_rate::cpu.data     0.073085                       # miss rate for WriteReq accesses
system.cpu.dcache.WriteReq_miss_rate::total     0.073085                       # miss rate for WriteReq accesses
system.cpu.dcache.demand_miss_rate::cpu.data     0.031496                       # miss rate for demand accesses
system.cpu.dcache.demand_miss_rate::total     0.031496                       # miss rate for demand accesses
system.cpu.dcache.overall_miss_rate::cpu.data     0.031496                       # miss rate for overall accesses
system.cpu.dcache.overall_miss_rate::total     0.031496                       # miss rate for overall accesses
system.cpu.dcache.ReadReq_avg_miss_latency::cpu.data 147758.263383                       # average ReadReq miss latency
system.cpu.dcache.ReadReq_avg_miss_latency::total 147758.263383                       # average ReadReq miss latency
system.cpu.dcache.WriteReq_avg_miss_latency::cpu.data 88585.801119                       # average WriteReq miss latency
system.cpu.dcache.WriteReq_avg_miss_latency::total 88585.801119                       # average WriteReq miss latency
system.cpu.dcache.demand_avg_miss_latency::cpu.data 89908.891957                       # average overall miss latency
system.cpu.dcache.demand_avg_miss_latency::total 89908.891957                       # average overall miss latency
system.cpu.dcache.overall_avg_miss_latency::cpu.data 89908.891957                       # average overall miss latency
system.cpu.dcache.overall_avg_miss_latency::total 89908.891957                       # average overall miss latency
system.cpu.dcache.blocked_cycles::no_mshrs            0                       # number of cycles access was blocked
system.cpu.dcache.blocked_cycles::no_targets            0                       # number of cycles access was blocked
system.cpu.dcache.blocked::no_mshrs                 0                       # number of cycles access was blocked
system.cpu.dcache.blocked::no_targets               0                       # number of cycles access was blocked
system.cpu.dcache.avg_blocked_cycles::no_mshrs          nan                       # average number of cycles each access was blocked
system.cpu.dcache.avg_blocked_cycles::no_targets          nan                       # average number of cycles each access was blocked
system.cpu.dcache.writebacks::writebacks      8467144                       # number of writebacks
system.cpu.dcache.writebacks::total           8467144                       # number of writebacks
system.cpu.dcache.ReadReq_mshr_misses::cpu.data       191326                       # number of ReadReq MSHR misses
system.cpu.dcache.ReadReq_mshr_misses::total       191326                       # number of ReadReq MSHR misses
system.cpu.dcache.WriteReq_mshr_misses::cpu.data      8365328                       # number of WriteReq MSHR misses
system.cpu.dcache.WriteReq_mshr_misses::total      8365328                       # number of WriteReq MSHR misses
system.cpu.dcache.demand_mshr_misses::cpu.data      8556654                       # number of demand (read+write) MSHR misses
system.cpu.dcache.demand_mshr_misses::total      8556654                       # number of demand (read+write) MSHR misses
system.cpu.dcache.overall_mshr_misses::cpu.data      8556654                       # number of overall MSHR misses
system.cpu.dcache.overall_mshr_misses::total      8556654                       # number of overall MSHR misses
system.cpu.dcache.ReadReq_mshr_miss_latency::cpu.data  28078671500                       # number of ReadReq MSHR miss cycles
system.cpu.dcache.ReadReq_mshr_miss_latency::total  28078671500                       # number of ReadReq MSHR miss cycles
system.cpu.dcache.WriteReq_mshr_miss_latency::cpu.data 732683954500                       # number of WriteReq MSHR miss cycles
system.cpu.dcache.WriteReq_mshr_miss_latency::total 732683954500                       # number of WriteReq MSHR miss cycles
system.cpu.dcache.demand_mshr_miss_latency::cpu.data 760762626000                       # number of demand (read+write) MSHR miss cycles
system.cpu.dcache.demand_mshr_miss_latency::total 760762626000                       # number of demand (read+write) MSHR miss cycles
system.cpu.dcache.overall_mshr_miss_latency::cpu.data 760762626000                       # number of overall MSHR miss cycles
system.cpu.dcache.overall_mshr_miss_latency::total 760762626000                       # number of overall MSHR miss cycles
system.cpu.dcache.ReadReq_mshr_miss_rate::cpu.data     0.001217                       # mshr miss rate for ReadReq accesses
system.cpu.dcache.ReadReq_mshr_miss_rate::total     0.001217                       # mshr miss rate for ReadReq accesses
system.cpu.dcache.WriteReq_mshr_miss_rate::cpu.data     0.073085                       # mshr miss rate for WriteReq accesses
system.cpu.dcache.WriteReq_mshr_miss_rate::total     0.073085                       # mshr miss rate for WriteReq accesses
system.cpu.dcache.demand_mshr_miss_rate::cpu.data     0.031496                       # mshr miss rate for demand accesses
system.cpu.dcache.demand_mshr_miss_rate::total     0.031496                       # mshr miss rate for demand accesses
system.cpu.dcache.overall_mshr_miss_rate::cpu.data     0.031496                       # mshr miss rate for overall accesses
system.cpu.dcache.overall_mshr_miss_rate::total     0.031496                       # mshr miss rate for overall accesses
system.cpu.dcache.ReadReq_avg_mshr_miss_latency::cpu.data 146758.263383                       # average ReadReq mshr miss latency
system.cpu.dcache.ReadReq_avg_mshr_miss_latency::total 146758.263383                       # average ReadReq mshr miss latency
system.cpu.dcache.WriteReq_avg_mshr_miss_latency::cpu.data 87585.801119                       # average WriteReq mshr miss latency
system.cpu.dcache.WriteReq_avg_mshr_miss_latency::total 87585.801119                       # average WriteReq mshr miss latency
system.cpu.dcache.demand_avg_mshr_miss_latency::cpu.data 88908.891957                       # average overall mshr miss latency
system.cpu.dcache.demand_avg_mshr_miss_latency::total 88908.891957                       # average overall mshr miss latency
system.cpu.dcache.overall_avg_mshr_miss_latency::cpu.data 88908.891957                       # average overall mshr miss latency
system.cpu.dcache.overall_avg_mshr_miss_latency::total 88908.891957                       # average overall mshr miss latency
system.cpu.dtb_walker_cache.tags.pwrStateResidencyTicks::UNDEFINED 1734096946000                       # Cumulative time (in ticks) in various power states
system.cpu.dtb_walker_cache.tags.replacements            0                       # number of replacements
system.cpu.dtb_walker_cache.tags.tagsinuse            0                       # Cycle average of tags in use
system.cpu.dtb_walker_cache.tags.total_refs            0                       # Total number of references to valid blocks.
system.cpu.dtb_walker_cache.tags.sampled_refs            0                       # Sample count of references to valid blocks.
system.cpu.dtb_walker_cache.tags.avg_refs          nan                       # Average number of references to valid blocks.
system.cpu.dtb_walker_cache.tags.warmup_cycle            0                       # Cycle when the warmup percentage was hit.
system.cpu.dtb_walker_cache.tags.tag_accesses            0                       # Number of tag accesses
system.cpu.dtb_walker_cache.tags.data_accesses            0                       # Number of data accesses
system.cpu.dtb_walker_cache.pwrStateResidencyTicks::UNDEFINED 1734096946000                       # Cumulative time (in ticks) in various power states
system.cpu.dtb_walker_cache.blocked_cycles::no_mshrs            0                       # number of cycles access was blocked
system.cpu.dtb_walker_cache.blocked_cycles::no_targets            0                       # number of cycles access was blocked
system.cpu.dtb_walker_cache.blocked::no_mshrs            0                       # number of cycles access was blocked
system.cpu.dtb_walker_cache.blocked::no_targets            0                       # number of cycles access was blocked
system.cpu.dtb_walker_cache.avg_blocked_cycles::no_mshrs          nan                       # average number of cycles each access was blocked
system.cpu.dtb_walker_cache.avg_blocked_cycles::no_targets          nan                       # average number of cycles each access was blocked
system.cpu.icache.tags.pwrStateResidencyTicks::UNDEFINED 1734096946000                       # Cumulative time (in ticks) in various power states
system.cpu.icache.tags.replacements           2158923                       # number of replacements
system.cpu.icache.tags.tagsinuse           455.747310                       # Cycle average of tags in use
system.cpu.icache.tags.total_refs           673194222                       # Total number of references to valid blocks.
system.cpu.icache.tags.sampled_refs           2159435                       # Sample count of references to valid blocks.
system.cpu.icache.tags.avg_refs            311.745536                       # Average number of references to valid blocks.
system.cpu.icache.tags.warmup_cycle      896017665500                       # Cycle when the warmup percentage was hit.
system.cpu.icache.tags.occ_blocks::cpu.inst   455.747310                       # Average occupied blocks per requestor
system.cpu.icache.tags.occ_percent::cpu.inst     0.890131                       # Average percentage of cache occupancy
system.cpu.icache.tags.occ_percent::total     0.890131                       # Average percentage of cache occupancy
system.cpu.icache.tags.occ_task_id_blocks::1024          512                       # Occupied blocks per task id
system.cpu.icache.tags.age_task_id_blocks_1024::0           14                       # Occupied blocks per task id
system.cpu.icache.tags.age_task_id_blocks_1024::1           99                       # Occupied blocks per task id
system.cpu.icache.tags.age_task_id_blocks_1024::2           86                       # Occupied blocks per task id
system.cpu.icache.tags.age_task_id_blocks_1024::3           36                       # Occupied blocks per task id
system.cpu.icache.tags.age_task_id_blocks_1024::4          277                       # Occupied blocks per task id
system.cpu.icache.tags.occ_task_id_percent::1024            1                       # Percentage of cache occupancy per task id
system.cpu.icache.tags.tag_accesses        1352866749                       # Number of tag accesses
system.cpu.icache.tags.data_accesses       1352866749                       # Number of data accesses
system.cpu.icache.pwrStateResidencyTicks::UNDEFINED 1734096946000                       # Cumulative time (in ticks) in various power states
system.cpu.icache.ReadReq_hits::cpu.inst    673194222                       # number of ReadReq hits
system.cpu.icache.ReadReq_hits::total       673194222                       # number of ReadReq hits
system.cpu.icache.demand_hits::cpu.inst     673194222                       # number of demand (read+write) hits
system.cpu.icache.demand_hits::total        673194222                       # number of demand (read+write) hits
system.cpu.icache.overall_hits::cpu.inst    673194222                       # number of overall hits
system.cpu.icache.overall_hits::total       673194222                       # number of overall hits
system.cpu.icache.ReadReq_misses::cpu.inst      2159435                       # number of ReadReq misses
system.cpu.icache.ReadReq_misses::total       2159435                       # number of ReadReq misses
system.cpu.icache.demand_misses::cpu.inst      2159435                       # number of demand (read+write) misses
system.cpu.icache.demand_misses::total        2159435                       # number of demand (read+write) misses
system.cpu.icache.overall_misses::cpu.inst      2159435                       # number of overall misses
system.cpu.icache.overall_misses::total       2159435                       # number of overall misses
system.cpu.icache.ReadReq_miss_latency::cpu.inst  28465967000                       # number of ReadReq miss cycles
system.cpu.icache.ReadReq_miss_latency::total  28465967000                       # number of ReadReq miss cycles
system.cpu.icache.demand_miss_latency::cpu.inst  28465967000                       # number of demand (read+write) miss cycles
system.cpu.icache.demand_miss_latency::total  28465967000                       # number of demand (read+write) miss cycles
system.cpu.icache.overall_miss_latency::cpu.inst  28465967000                       # number of overall miss cycles
system.cpu.icache.overall_miss_latency::total  28465967000                       # number of overall miss cycles
system.cpu.icache.ReadReq_accesses::cpu.inst    675353657                       # number of ReadReq accesses(hits+misses)
system.cpu.icache.ReadReq_accesses::total    675353657                       # number of ReadReq accesses(hits+misses)
system.cpu.icache.demand_accesses::cpu.inst    675353657                       # number of demand (read+write) accesses
system.cpu.icache.demand_accesses::total    675353657                       # number of demand (read+write) accesses
system.cpu.icache.overall_accesses::cpu.inst    675353657                       # number of overall (read+write) accesses
system.cpu.icache.overall_accesses::total    675353657                       # number of overall (read+write) accesses
system.cpu.icache.ReadReq_miss_rate::cpu.inst     0.003197                       # miss rate for ReadReq accesses
system.cpu.icache.ReadReq_miss_rate::total     0.003197                       # miss rate for ReadReq accesses
system.cpu.icache.demand_miss_rate::cpu.inst     0.003197                       # miss rate for demand accesses
system.cpu.icache.demand_miss_rate::total     0.003197                       # miss rate for demand accesses
system.cpu.icache.overall_miss_rate::cpu.inst     0.003197                       # miss rate for overall accesses
system.cpu.icache.overall_miss_rate::total     0.003197                       # miss rate for overall accesses
system.cpu.icache.ReadReq_avg_miss_latency::cpu.inst 13182.136531                       # average ReadReq miss latency
system.cpu.icache.ReadReq_avg_miss_latency::total 13182.136531                       # average ReadReq miss latency
system.cpu.icache.demand_avg_miss_latency::cpu.inst 13182.136531                       # average overall miss latency
system.cpu.icache.demand_avg_miss_latency::total 13182.136531                       # average overall miss latency
system.cpu.icache.overall_avg_miss_latency::cpu.inst 13182.136531                       # average overall miss latency
system.cpu.icache.overall_avg_miss_latency::total 13182.136531                       # average overall miss latency
system.cpu.icache.blocked_cycles::no_mshrs            0                       # number of cycles access was blocked
system.cpu.icache.blocked_cycles::no_targets            0                       # number of cycles access was blocked
system.cpu.icache.blocked::no_mshrs                 0                       # number of cycles access was blocked
system.cpu.icache.blocked::no_targets               0                       # number of cycles access was blocked
system.cpu.icache.avg_blocked_cycles::no_mshrs          nan                       # average number of cycles each access was blocked
system.cpu.icache.avg_blocked_cycles::no_targets          nan                       # average number of cycles each access was blocked
system.cpu.icache.writebacks::writebacks      2158923                       # number of writebacks
system.cpu.icache.writebacks::total           2158923                       # number of writebacks
system.cpu.icache.ReadReq_mshr_misses::cpu.inst      2159435                       # number of ReadReq MSHR misses
system.cpu.icache.ReadReq_mshr_misses::total      2159435                       # number of ReadReq MSHR misses
system.cpu.icache.demand_mshr_misses::cpu.inst      2159435                       # number of demand (read+write) MSHR misses
system.cpu.icache.demand_mshr_misses::total      2159435                       # number of demand (read+write) MSHR misses
system.cpu.icache.overall_mshr_misses::cpu.inst      2159435                       # number of overall MSHR misses
system.cpu.icache.overall_mshr_misses::total      2159435                       # number of overall MSHR misses
system.cpu.icache.ReadReq_mshr_miss_latency::cpu.inst  26306532000                       # number of ReadReq MSHR miss cycles
system.cpu.icache.ReadReq_mshr_miss_latency::total  26306532000                       # number of ReadReq MSHR miss cycles
system.cpu.icache.demand_mshr_miss_latency::cpu.inst  26306532000                       # number of demand (read+write) MSHR miss cycles
system.cpu.icache.demand_mshr_miss_latency::total  26306532000                       # number of demand (read+write) MSHR miss cycles
system.cpu.icache.overall_mshr_miss_latency::cpu.inst  26306532000                       # number of overall MSHR miss cycles
system.cpu.icache.overall_mshr_miss_latency::total  26306532000                       # number of overall MSHR miss cycles
system.cpu.icache.ReadReq_mshr_miss_rate::cpu.inst     0.003197                       # mshr miss rate for ReadReq accesses
system.cpu.icache.ReadReq_mshr_miss_rate::total     0.003197                       # mshr miss rate for ReadReq accesses
system.cpu.icache.demand_mshr_miss_rate::cpu.inst     0.003197                       # mshr miss rate for demand accesses
system.cpu.icache.demand_mshr_miss_rate::total     0.003197                       # mshr miss rate for demand accesses
system.cpu.icache.overall_mshr_miss_rate::cpu.inst     0.003197                       # mshr miss rate for overall accesses
system.cpu.icache.overall_mshr_miss_rate::total     0.003197                       # mshr miss rate for overall accesses
system.cpu.icache.ReadReq_avg_mshr_miss_latency::cpu.inst 12182.136531                       # average ReadReq mshr miss latency
system.cpu.icache.ReadReq_avg_mshr_miss_latency::total 12182.136531                       # average ReadReq mshr miss latency
system.cpu.icache.demand_avg_mshr_miss_latency::cpu.inst 12182.136531                       # average overall mshr miss latency
system.cpu.icache.demand_avg_mshr_miss_latency::total 12182.136531                       # average overall mshr miss latency
system.cpu.icache.overall_avg_mshr_miss_latency::cpu.inst 12182.136531                       # average overall mshr miss latency
system.cpu.icache.overall_avg_mshr_miss_latency::total 12182.136531                       # average overall mshr miss latency
system.cpu.itb_walker_cache.tags.pwrStateResidencyTicks::UNDEFINED 1734096946000                       # Cumulative time (in ticks) in various power states
system.cpu.itb_walker_cache.tags.replacements            0                       # number of replacements
system.cpu.itb_walker_cache.tags.tagsinuse            0                       # Cycle average of tags in use
system.cpu.itb_walker_cache.tags.total_refs            0                       # Total number of references to valid blocks.
system.cpu.itb_walker_cache.tags.sampled_refs            0                       # Sample count of references to valid blocks.
system.cpu.itb_walker_cache.tags.avg_refs          nan                       # Average number of references to valid blocks.
system.cpu.itb_walker_cache.tags.warmup_cycle            0                       # Cycle when the warmup percentage was hit.
system.cpu.itb_walker_cache.tags.tag_accesses            0                       # Number of tag accesses
system.cpu.itb_walker_cache.tags.data_accesses            0                       # Number of data accesses
system.cpu.itb_walker_cache.pwrStateResidencyTicks::UNDEFINED 1734096946000                       # Cumulative time (in ticks) in various power states
system.cpu.itb_walker_cache.blocked_cycles::no_mshrs            0                       # number of cycles access was blocked
system.cpu.itb_walker_cache.blocked_cycles::no_targets            0                       # number of cycles access was blocked
system.cpu.itb_walker_cache.blocked::no_mshrs            0                       # number of cycles access was blocked
system.cpu.itb_walker_cache.blocked::no_targets            0                       # number of cycles access was blocked
system.cpu.itb_walker_cache.avg_blocked_cycles::no_mshrs          nan                       # average number of cycles each access was blocked
system.cpu.itb_walker_cache.avg_blocked_cycles::no_targets          nan                       # average number of cycles each access was blocked
system.l2.tags.pwrStateResidencyTicks::UNDEFINED 1734096946000                       # Cumulative time (in ticks) in various power states
system.l2.tags.replacements                   8365540                       # number of replacements
system.l2.tags.tagsinuse                 16313.682317                       # Cycle average of tags in use
system.l2.tags.total_refs                    13047812                       # Total number of references to valid blocks.
system.l2.tags.sampled_refs                   8381924                       # Sample count of references to valid blocks.
system.l2.tags.avg_refs                      1.556661                       # Average number of references to valid blocks.
system.l2.tags.warmup_cycle                9587875000                       # Cycle when the warmup percentage was hit.
system.l2.tags.occ_blocks::writebacks      228.927655                       # Average occupied blocks per requestor
system.l2.tags.occ_blocks::cpu.inst        297.373223                       # Average occupied blocks per requestor
system.l2.tags.occ_blocks::cpu.data      15787.381440                       # Average occupied blocks per requestor
system.l2.tags.occ_percent::writebacks       0.013973                       # Average percentage of cache occupancy
system.l2.tags.occ_percent::cpu.inst         0.018150                       # Average percentage of cache occupancy
system.l2.tags.occ_percent::cpu.data         0.963585                       # Average percentage of cache occupancy
system.l2.tags.occ_percent::total            0.995708                       # Average percentage of cache occupancy
system.l2.tags.occ_task_id_blocks::1024         16384                       # Occupied blocks per task id
system.l2.tags.age_task_id_blocks_1024::1            5                       # Occupied blocks per task id
system.l2.tags.age_task_id_blocks_1024::2           84                       # Occupied blocks per task id
system.l2.tags.age_task_id_blocks_1024::3          878                       # Occupied blocks per task id
system.l2.tags.age_task_id_blocks_1024::4        15417                       # Occupied blocks per task id
system.l2.tags.occ_task_id_percent::1024            1                       # Percentage of cache occupancy per task id
system.l2.tags.tag_accesses                  51243206                       # Number of tag accesses
system.l2.tags.data_accesses                 51243206                       # Number of data accesses
system.l2.pwrStateResidencyTicks::UNDEFINED 1734096946000                       # Cumulative time (in ticks) in various power states
system.l2.WritebackDirty_hits::writebacks      8467144                       # number of WritebackDirty hits
system.l2.WritebackDirty_hits::total          8467144                       # number of WritebackDirty hits
system.l2.WritebackClean_hits::writebacks      2158923                       # number of WritebackClean hits
system.l2.WritebackClean_hits::total          2158923                       # number of WritebackClean hits
system.l2.ReadExReq_hits::cpu.data              70222                       # number of ReadExReq hits
system.l2.ReadExReq_hits::total                 70222                       # number of ReadExReq hits
system.l2.ReadCleanReq_hits::cpu.inst         2156796                       # number of ReadCleanReq hits
system.l2.ReadCleanReq_hits::total            2156796                       # number of ReadCleanReq hits
system.l2.ReadSharedReq_hits::cpu.data         110212                       # number of ReadSharedReq hits
system.l2.ReadSharedReq_hits::total            110212                       # number of ReadSharedReq hits
system.l2.demand_hits::cpu.inst               2156796                       # number of demand (read+write) hits
system.l2.demand_hits::cpu.data                180434                       # number of demand (read+write) hits
system.l2.demand_hits::total                  2337230                       # number of demand (read+write) hits
system.l2.overall_hits::cpu.inst              2156796                       # number of overall hits
system.l2.overall_hits::cpu.data               180434                       # number of overall hits
system.l2.overall_hits::total                 2337230                       # number of overall hits
system.l2.ReadExReq_misses::cpu.data          8295106                       # number of ReadExReq misses
system.l2.ReadExReq_misses::total             8295106                       # number of ReadExReq misses
system.l2.ReadCleanReq_misses::cpu.inst          2639                       # number of ReadCleanReq misses
system.l2.ReadCleanReq_misses::total             2639                       # number of ReadCleanReq misses
system.l2.ReadSharedReq_misses::cpu.data        81114                       # number of ReadSharedReq misses
system.l2.ReadSharedReq_misses::total           81114                       # number of ReadSharedReq misses
system.l2.demand_misses::cpu.inst                2639                       # number of demand (read+write) misses
system.l2.demand_misses::cpu.data             8376220                       # number of demand (read+write) misses
system.l2.demand_misses::total                8378859                       # number of demand (read+write) misses
system.l2.overall_misses::cpu.inst               2639                       # number of overall misses
system.l2.overall_misses::cpu.data            8376220                       # number of overall misses
system.l2.overall_misses::total               8378859                       # number of overall misses
system.l2.ReadExReq_miss_latency::cpu.data 719398397500                       # number of ReadExReq miss cycles
system.l2.ReadExReq_miss_latency::total  719398397500                       # number of ReadExReq miss cycles
system.l2.ReadCleanReq_miss_latency::cpu.inst    395738000                       # number of ReadCleanReq miss cycles
system.l2.ReadCleanReq_miss_latency::total    395738000                       # number of ReadCleanReq miss cycles
system.l2.ReadSharedReq_miss_latency::cpu.data  26633733500                       # number of ReadSharedReq miss cycles
system.l2.ReadSharedReq_miss_latency::total  26633733500                       # number of ReadSharedReq miss cycles
system.l2.demand_miss_latency::cpu.inst     395738000                       # number of demand (read+write) miss cycles
system.l2.demand_miss_latency::cpu.data  746032131000                       # number of demand (read+write) miss cycles
system.l2.demand_miss_latency::total     746427869000                       # number of demand (read+write) miss cycles
system.l2.overall_miss_latency::cpu.inst    395738000                       # number of overall miss cycles
system.l2.overall_miss_latency::cpu.data 746032131000                       # number of overall miss cycles
system.l2.overall_miss_latency::total    746427869000                       # number of overall miss cycles
system.l2.WritebackDirty_accesses::writebacks      8467144                       # number of WritebackDirty accesses(hits+misses)
system.l2.WritebackDirty_accesses::total      8467144                       # number of WritebackDirty accesses(hits+misses)
system.l2.WritebackClean_accesses::writebacks      2158923                       # number of WritebackClean accesses(hits+misses)
system.l2.WritebackClean_accesses::total      2158923                       # number of WritebackClean accesses(hits+misses)
system.l2.ReadExReq_accesses::cpu.data        8365328                       # number of ReadExReq accesses(hits+misses)
system.l2.ReadExReq_accesses::total           8365328                       # number of ReadExReq accesses(hits+misses)
system.l2.ReadCleanReq_accesses::cpu.inst      2159435                       # number of ReadCleanReq accesses(hits+misses)
system.l2.ReadCleanReq_accesses::total        2159435                       # number of ReadCleanReq accesses(hits+misses)
system.l2.ReadSharedReq_accesses::cpu.data       191326                       # number of ReadSharedReq accesses(hits+misses)
system.l2.ReadSharedReq_accesses::total        191326                       # number of ReadSharedReq accesses(hits+misses)
system.l2.demand_accesses::cpu.inst           2159435                       # number of demand (read+write) accesses
system.l2.demand_accesses::cpu.data           8556654                       # number of demand (read+write) accesses
system.l2.demand_accesses::total             10716089                       # number of demand (read+write) accesses
system.l2.overall_accesses::cpu.inst          2159435                       # number of overall (read+write) accesses
system.l2.overall_accesses::cpu.data          8556654                       # number of overall (read+write) accesses
system.l2.overall_accesses::total            10716089                       # number of overall (read+write) accesses
system.l2.ReadExReq_miss_rate::cpu.data      0.991606                       # miss rate for ReadExReq accesses
system.l2.ReadExReq_miss_rate::total         0.991606                       # miss rate for ReadExReq accesses
system.l2.ReadCleanReq_miss_rate::cpu.inst     0.001222                       # miss rate for ReadCleanReq accesses
system.l2.ReadCleanReq_miss_rate::total      0.001222                       # miss rate for ReadCleanReq accesses
system.l2.ReadSharedReq_miss_rate::cpu.data     0.423957                       # miss rate for ReadSharedReq accesses
system.l2.ReadSharedReq_miss_rate::total     0.423957                       # miss rate for ReadSharedReq accesses
system.l2.demand_miss_rate::cpu.inst         0.001222                       # miss rate for demand accesses
system.l2.demand_miss_rate::cpu.data         0.978913                       # miss rate for demand accesses
system.l2.demand_miss_rate::total            0.781895                       # miss rate for demand accesses
system.l2.overall_miss_rate::cpu.inst        0.001222                       # miss rate for overall accesses
system.l2.overall_miss_rate::cpu.data        0.978913                       # miss rate for overall accesses
system.l2.overall_miss_rate::total           0.781895                       # miss rate for overall accesses
system.l2.ReadExReq_avg_miss_latency::cpu.data 86725.642505                       # average ReadExReq miss latency
system.l2.ReadExReq_avg_miss_latency::total 86725.642505                       # average ReadExReq miss latency
system.l2.ReadCleanReq_avg_miss_latency::cpu.inst 149957.559682                       # average ReadCleanReq miss latency
system.l2.ReadCleanReq_avg_miss_latency::total 149957.559682                       # average ReadCleanReq miss latency
system.l2.ReadSharedReq_avg_miss_latency::cpu.data 328349.403309                       # average ReadSharedReq miss latency
system.l2.ReadSharedReq_avg_miss_latency::total 328349.403309                       # average ReadSharedReq miss latency
system.l2.demand_avg_miss_latency::cpu.inst 149957.559682                       # average overall miss latency
system.l2.demand_avg_miss_latency::cpu.data 89065.489087                       # average overall miss latency
system.l2.demand_avg_miss_latency::total 89084.667614                       # average overall miss latency
system.l2.overall_avg_miss_latency::cpu.inst 149957.559682                       # average overall miss latency
system.l2.overall_avg_miss_latency::cpu.data 89065.489087                       # average overall miss latency
system.l2.overall_avg_miss_latency::total 89084.667614                       # average overall miss latency
system.l2.blocked_cycles::no_mshrs                  0                       # number of cycles access was blocked
system.l2.blocked_cycles::no_targets                0                       # number of cycles access was blocked
system.l2.blocked::no_mshrs                         0                       # number of cycles access was blocked
system.l2.blocked::no_targets                       0                       # number of cycles access was blocked
system.l2.avg_blocked_cycles::no_mshrs            nan                       # average number of cycles each access was blocked
system.l2.avg_blocked_cycles::no_targets          nan                       # average number of cycles each access was blocked
system.l2.writebacks::writebacks              8346140                       # number of writebacks
system.l2.writebacks::total                   8346140                       # number of writebacks
system.l2.CleanEvict_mshr_misses::writebacks          905                       # number of CleanEvict MSHR misses
system.l2.CleanEvict_mshr_misses::total           905                       # number of CleanEvict MSHR misses
system.l2.ReadExReq_mshr_misses::cpu.data      8295106                       # number of ReadExReq MSHR misses
system.l2.ReadExReq_mshr_misses::total        8295106                       # number of ReadExReq MSHR misses
system.l2.ReadCleanReq_mshr_misses::cpu.inst         2639                       # number of ReadCleanReq MSHR misses
system.l2.ReadCleanReq_mshr_misses::total         2639                       # number of ReadCleanReq MSHR misses
system.l2.ReadSharedReq_mshr_misses::cpu.data        81114                       # number of ReadSharedReq MSHR misses
system.l2.ReadSharedReq_mshr_misses::total        81114                       # number of ReadSharedReq MSHR misses
system.l2.demand_mshr_misses::cpu.inst           2639                       # number of demand (read+write) MSHR misses
system.l2.demand_mshr_misses::cpu.data        8376220                       # number of demand (read+write) MSHR misses
system.l2.demand_mshr_misses::total           8378859                       # number of demand (read+write) MSHR misses
system.l2.overall_mshr_misses::cpu.inst          2639                       # number of overall MSHR misses
system.l2.overall_mshr_misses::cpu.data       8376220                       # number of overall MSHR misses
system.l2.overall_mshr_misses::total          8378859                       # number of overall MSHR misses
system.l2.ReadExReq_mshr_miss_latency::cpu.data 636447337500                       # number of ReadExReq MSHR miss cycles
system.l2.ReadExReq_mshr_miss_latency::total 636447337500                       # number of ReadExReq MSHR miss cycles
system.l2.ReadCleanReq_mshr_miss_latency::cpu.inst    369348000                       # number of ReadCleanReq MSHR miss cycles
system.l2.ReadCleanReq_mshr_miss_latency::total    369348000                       # number of ReadCleanReq MSHR miss cycles
system.l2.ReadSharedReq_mshr_miss_latency::cpu.data  25822593500                       # number of ReadSharedReq MSHR miss cycles
system.l2.ReadSharedReq_mshr_miss_latency::total  25822593500                       # number of ReadSharedReq MSHR miss cycles
system.l2.demand_mshr_miss_latency::cpu.inst    369348000                       # number of demand (read+write) MSHR miss cycles
system.l2.demand_mshr_miss_latency::cpu.data 662269931000                       # number of demand (read+write) MSHR miss cycles
system.l2.demand_mshr_miss_latency::total 662639279000                       # number of demand (read+write) MSHR miss cycles
system.l2.overall_mshr_miss_latency::cpu.inst    369348000                       # number of overall MSHR miss cycles
system.l2.overall_mshr_miss_latency::cpu.data 662269931000                       # number of overall MSHR miss cycles
system.l2.overall_mshr_miss_latency::total 662639279000                       # number of overall MSHR miss cycles
system.l2.CleanEvict_mshr_miss_rate::writebacks          inf                       # mshr miss rate for CleanEvict accesses
system.l2.CleanEvict_mshr_miss_rate::total          inf                       # mshr miss rate for CleanEvict accesses
system.l2.ReadExReq_mshr_miss_rate::cpu.data     0.991606                       # mshr miss rate for ReadExReq accesses
system.l2.ReadExReq_mshr_miss_rate::total     0.991606                       # mshr miss rate for ReadExReq accesses
system.l2.ReadCleanReq_mshr_miss_rate::cpu.inst     0.001222                       # mshr miss rate for ReadCleanReq accesses
system.l2.ReadCleanReq_mshr_miss_rate::total     0.001222                       # mshr miss rate for ReadCleanReq accesses
system.l2.ReadSharedReq_mshr_miss_rate::cpu.data     0.423957                       # mshr miss rate for ReadSharedReq accesses
system.l2.ReadSharedReq_mshr_miss_rate::total     0.423957                       # mshr miss rate for ReadSharedReq accesses
system.l2.demand_mshr_miss_rate::cpu.inst     0.001222                       # mshr miss rate for demand accesses
system.l2.demand_mshr_miss_rate::cpu.data     0.978913                       # mshr miss rate for demand accesses
system.l2.demand_mshr_miss_rate::total       0.781895                       # mshr miss rate for demand accesses
system.l2.overall_mshr_miss_rate::cpu.inst     0.001222                       # mshr miss rate for overall accesses
system.l2.overall_mshr_miss_rate::cpu.data     0.978913                       # mshr miss rate for overall accesses
system.l2.overall_mshr_miss_rate::total      0.781895                       # mshr miss rate for overall accesses
system.l2.ReadExReq_avg_mshr_miss_latency::cpu.data 76725.642505                       # average ReadExReq mshr miss latency
system.l2.ReadExReq_avg_mshr_miss_latency::total 76725.642505                       # average ReadExReq mshr miss latency
system.l2.ReadCleanReq_avg_mshr_miss_latency::cpu.inst 139957.559682                       # average ReadCleanReq mshr miss latency
system.l2.ReadCleanReq_avg_mshr_miss_latency::total 139957.559682                       # average ReadCleanReq mshr miss latency
system.l2.ReadSharedReq_avg_mshr_miss_latency::cpu.data 318349.403309                       # average ReadSharedReq mshr miss latency
system.l2.ReadSharedReq_avg_mshr_miss_latency::total 318349.403309                       # average ReadSharedReq mshr miss latency
system.l2.demand_avg_mshr_miss_latency::cpu.inst 139957.559682                       # average overall mshr miss latency
system.l2.demand_avg_mshr_miss_latency::cpu.data 79065.489087                       # average overall mshr miss latency
system.l2.demand_avg_mshr_miss_latency::total 79084.667614                       # average overall mshr miss latency
system.l2.overall_avg_mshr_miss_latency::cpu.inst 139957.559682                       # average overall mshr miss latency
system.l2.overall_avg_mshr_miss_latency::cpu.data 79065.489087                       # average overall mshr miss latency
system.l2.overall_avg_mshr_miss_latency::total 79084.667614                       # average overall mshr miss latency
system.membus.snoop_filter.tot_requests      16741140                       # Total number of requests made to the snoop filter.
system.membus.snoop_filter.hit_single_requests      8362281                       # Number of requests hitting in the snoop filter with a single holder of the requested data.
system.membus.snoop_filter.hit_multi_requests            0                       # Number of requests hitting in the snoop filter with multiple (>1) holders of the requested data.
system.membus.snoop_filter.tot_snoops               0                       # Total number of snoops made to the snoop filter.
system.membus.snoop_filter.hit_single_snoops            0                       # Number of snoops hitting in the snoop filter with a single holder of the requested data.
system.membus.snoop_filter.hit_multi_snoops            0                       # Number of snoops hitting in the snoop filter with multiple (>1) holders of the requested data.
system.membus.pwrStateResidencyTicks::UNDEFINED 1734096946000                       # Cumulative time (in ticks) in various power states
system.membus.trans_dist::ReadResp              83753                       # Transaction distribution
system.membus.trans_dist::WritebackDirty      8346140                       # Transaction distribution
system.membus.trans_dist::CleanEvict            16141                       # Transaction distribution
system.membus.trans_dist::ReadExReq           8295106                       # Transaction distribution
system.membus.trans_dist::ReadExResp          8295106                       # Transaction distribution
system.membus.trans_dist::ReadSharedReq         83753                       # Transaction distribution
system.membus.pkt_count_system.l2.mem_side::system.mem_ctrls.port     25119999                       # Packet count per connected master and slave (bytes)
system.membus.pkt_count_system.l2.mem_side::total     25119999                       # Packet count per connected master and slave (bytes)
system.membus.pkt_count::total               25119999                       # Packet count per connected master and slave (bytes)
system.membus.pkt_size_system.l2.mem_side::system.mem_ctrls.port   1070399936                       # Cumulative packet size per connected master and slave (bytes)
system.membus.pkt_size_system.l2.mem_side::total   1070399936                       # Cumulative packet size per connected master and slave (bytes)
system.membus.pkt_size::total              1070399936                       # Cumulative packet size per connected master and slave (bytes)
system.membus.snoops                                0                       # Total snoops (count)
system.membus.snoopTraffic                          0                       # Total snoop traffic (bytes)
system.membus.snoop_fanout::samples           8378859                       # Request fanout histogram
system.membus.snoop_fanout::mean                    0                       # Request fanout histogram
system.membus.snoop_fanout::stdev                   0                       # Request fanout histogram
system.membus.snoop_fanout::underflows              0      0.00%      0.00% # Request fanout histogram
system.membus.snoop_fanout::0                 8378859    100.00%    100.00% # Request fanout histogram
system.membus.snoop_fanout::1                       0      0.00%    100.00% # Request fanout histogram
system.membus.snoop_fanout::overflows               0      0.00%    100.00% # Request fanout histogram
system.membus.snoop_fanout::min_value               0                       # Request fanout histogram
system.membus.snoop_fanout::max_value               0                       # Request fanout histogram
system.membus.snoop_fanout::total             8378859                       # Request fanout histogram
system.membus.reqLayer2.occupancy         50136151500                       # Layer occupancy (ticks)
system.membus.reqLayer2.utilization               2.9                       # Layer utilization (%)
system.membus.respLayer1.occupancy        44081402000                       # Layer occupancy (ticks)
system.membus.respLayer1.utilization              2.5                       # Layer utilization (%)
system.tol2bus.snoop_filter.tot_requests     21430642                       # Total number of requests made to the snoop filter.
system.tol2bus.snoop_filter.hit_single_requests     10714553                       # Number of requests hitting in the snoop filter with a single holder of the requested data.
system.tol2bus.snoop_filter.hit_multi_requests            1                       # Number of requests hitting in the snoop filter with multiple (>1) holders of the requested data.
system.tol2bus.snoop_filter.tot_snoops           4164                       # Total number of snoops made to the snoop filter.
system.tol2bus.snoop_filter.hit_single_snoops         4164                       # Number of snoops hitting in the snoop filter with a single holder of the requested data.
system.tol2bus.snoop_filter.hit_multi_snoops            0                       # Number of snoops hitting in the snoop filter with multiple (>1) holders of the requested data.
system.tol2bus.pwrStateResidencyTicks::UNDEFINED 1734096946000                       # Cumulative time (in ticks) in various power states
system.tol2bus.trans_dist::ReadResp           2350761                       # Transaction distribution
system.tol2bus.trans_dist::WritebackDirty     16813284                       # Transaction distribution
system.tol2bus.trans_dist::WritebackClean      2158923                       # Transaction distribution
system.tol2bus.trans_dist::CleanEvict          107886                       # Transaction distribution
system.tol2bus.trans_dist::ReadExReq          8365328                       # Transaction distribution
system.tol2bus.trans_dist::ReadExResp         8365328                       # Transaction distribution
system.tol2bus.trans_dist::ReadCleanReq       2159435                       # Transaction distribution
system.tol2bus.trans_dist::ReadSharedReq       191326                       # Transaction distribution
system.tol2bus.pkt_count_system.cpu.icache.mem_side::system.l2.cpu_side      6477793                       # Packet count per connected master and slave (bytes)
system.tol2bus.pkt_count_system.cpu.dcache.mem_side::system.l2.cpu_side     25668938                       # Packet count per connected master and slave (bytes)
system.tol2bus.pkt_count::total              32146731                       # Packet count per connected master and slave (bytes)
system.tol2bus.pkt_size_system.cpu.icache.mem_side::system.l2.cpu_side    276374912                       # Cumulative packet size per connected master and slave (bytes)
system.tol2bus.pkt_size_system.cpu.dcache.mem_side::system.l2.cpu_side   1089523072                       # Cumulative packet size per connected master and slave (bytes)
system.tol2bus.pkt_size::total             1365897984                       # Cumulative packet size per connected master and slave (bytes)
system.tol2bus.snoops                         8365540                       # Total snoops (count)
system.tol2bus.snoopTraffic                 534152960                       # Total snoop traffic (bytes)
system.tol2bus.snoop_fanout::samples         19081629                       # Request fanout histogram
system.tol2bus.snoop_fanout::mean            0.000218                       # Request fanout histogram
system.tol2bus.snoop_fanout::stdev           0.014772                       # Request fanout histogram
system.tol2bus.snoop_fanout::underflows             0      0.00%      0.00% # Request fanout histogram
system.tol2bus.snoop_fanout::0               19077464     99.98%     99.98% # Request fanout histogram
system.tol2bus.snoop_fanout::1                   4165      0.02%    100.00% # Request fanout histogram
system.tol2bus.snoop_fanout::2                      0      0.00%    100.00% # Request fanout histogram
system.tol2bus.snoop_fanout::3                      0      0.00%    100.00% # Request fanout histogram
system.tol2bus.snoop_fanout::4                      0      0.00%    100.00% # Request fanout histogram
system.tol2bus.snoop_fanout::overflows              0      0.00%    100.00% # Request fanout histogram
system.tol2bus.snoop_fanout::min_value              0                       # Request fanout histogram
system.tol2bus.snoop_fanout::max_value              1                       # Request fanout histogram
system.tol2bus.snoop_fanout::total           19081629                       # Request fanout histogram
system.tol2bus.reqLayer0.occupancy        21341388000                       # Layer occupancy (ticks)
system.tol2bus.reqLayer0.utilization              1.2                       # Layer utilization (%)
system.tol2bus.respLayer0.occupancy        3239152500                       # Layer occupancy (ticks)
system.tol2bus.respLayer0.utilization             0.2                       # Layer utilization (%)
system.tol2bus.respLayer1.occupancy       12834981000                       # Layer occupancy (ticks)
system.tol2bus.respLayer1.utilization             0.7                       # Layer utilization (%)

---------- End Simulation Statistics   ----------
