
---------- Begin Simulation Statistics ----------
sim_seconds                                  2.392659                       # Number of seconds simulated
sim_ticks                                2392659330500                       # Number of ticks simulated
final_tick                               2392659330500                       # Number of ticks from beginning of simulation (restored from checkpoints and never reset)
sim_freq                                 1000000000000                       # Frequency of simulated ticks
host_inst_rate                                 462343                       # Simulator instruction rate (inst/s)
host_op_rate                                   761355                       # Simulator op (including micro ops) rate (op/s)
host_tick_rate                             2212456344                       # Simulator tick rate (ticks/s)
host_mem_usage                                 669496                       # Number of bytes of host memory used
host_seconds                                  1081.45                       # Real time elapsed on the host
sim_insts                                   500000000                       # Number of instructions simulated
sim_ops                                     823366692                       # Number of ops (including micro ops) simulated
system.voltage_domain.voltage                       1                       # Voltage in Volts
system.clk_domain.clock                          1000                       # Clock period in ticks
system.mem_ctrls.pwrStateResidencyTicks::UNDEFINED 2392659330500                       # Cumulative time (in ticks) in various power states
system.mem_ctrls.bytes_read::cpu.inst          123424                       # Number of bytes read from this memory
system.mem_ctrls.bytes_read::cpu.data       533377984                       # Number of bytes read from this memory
system.mem_ctrls.bytes_read::total          533501408                       # Number of bytes read from this memory
system.mem_ctrls.bytes_inst_read::cpu.inst       123424                       # Number of instructions bytes read from this memory
system.mem_ctrls.bytes_inst_read::total        123424                       # Number of instructions bytes read from this memory
system.mem_ctrls.bytes_written::writebacks    532013088                       # Number of bytes written to this memory
system.mem_ctrls.bytes_written::total       532013088                       # Number of bytes written to this memory
system.mem_ctrls.num_reads::cpu.inst             3857                       # Number of read requests responded to by this memory
system.mem_ctrls.num_reads::cpu.data         16668062                       # Number of read requests responded to by this memory
system.mem_ctrls.num_reads::total            16671919                       # Number of read requests responded to by this memory
system.mem_ctrls.num_writes::writebacks      16625409                       # Number of write requests responded to by this memory
system.mem_ctrls.num_writes::total           16625409                       # Number of write requests responded to by this memory
system.mem_ctrls.bw_read::cpu.inst              51584                       # Total read bandwidth from this memory (bytes/s)
system.mem_ctrls.bw_read::cpu.data          222922661                       # Total read bandwidth from this memory (bytes/s)
system.mem_ctrls.bw_read::total             222974245                       # Total read bandwidth from this memory (bytes/s)
system.mem_ctrls.bw_inst_read::cpu.inst         51584                       # Instruction read bandwidth from this memory (bytes/s)
system.mem_ctrls.bw_inst_read::total            51584                       # Instruction read bandwidth from this memory (bytes/s)
system.mem_ctrls.bw_write::writebacks       222352209                       # Write bandwidth from this memory (bytes/s)
system.mem_ctrls.bw_write::total            222352209                       # Write bandwidth from this memory (bytes/s)
system.mem_ctrls.bw_total::writebacks       222352209                       # Total bandwidth to/from this memory (bytes/s)
system.mem_ctrls.bw_total::cpu.inst             51584                       # Total bandwidth to/from this memory (bytes/s)
system.mem_ctrls.bw_total::cpu.data         222922661                       # Total bandwidth to/from this memory (bytes/s)
system.mem_ctrls.bw_total::total            445326454                       # Total bandwidth to/from this memory (bytes/s)
system.mem_ctrls.readReqs                    16671919                       # Number of read requests accepted
system.mem_ctrls.writeReqs                   16625409                       # Number of write requests accepted
system.mem_ctrls.readBursts                  16671919                       # Number of DRAM read bursts, including those serviced by the write queue
system.mem_ctrls.writeBursts                 16625409                       # Number of DRAM write bursts, including those merged in the write queue
system.mem_ctrls.bytesReadDRAM             1067001792                       # Total number of bytes read from DRAM
system.mem_ctrls.bytesReadWrQ                    1024                       # Total number of bytes read from write queue
system.mem_ctrls.bytesWritten               534569344                       # Total number of bytes written to DRAM
system.mem_ctrls.bytesReadSys               533501408                       # Total read bytes from the system interface side
system.mem_ctrls.bytesWrittenSys            532013088                       # Total written bytes from the system interface side
system.mem_ctrls.servicedByWrQ                     16                       # Number of DRAM read bursts serviced by the write queue
system.mem_ctrls.mergedWrBursts               8272731                       # Number of DRAM write bursts merged with an existing one
system.mem_ctrls.neitherReadNorWriteReqs            0                       # Number of requests that are neither read nor write
system.mem_ctrls.perBankRdBursts::0           1041807                       # Per bank write bursts
system.mem_ctrls.perBankRdBursts::1           1041455                       # Per bank write bursts
system.mem_ctrls.perBankRdBursts::2           1041669                       # Per bank write bursts
system.mem_ctrls.perBankRdBursts::3           1042279                       # Per bank write bursts
system.mem_ctrls.perBankRdBursts::4           1042169                       # Per bank write bursts
system.mem_ctrls.perBankRdBursts::5           1042205                       # Per bank write bursts
system.mem_ctrls.perBankRdBursts::6           1041787                       # Per bank write bursts
system.mem_ctrls.perBankRdBursts::7           1041787                       # Per bank write bursts
system.mem_ctrls.perBankRdBursts::8           1041280                       # Per bank write bursts
system.mem_ctrls.perBankRdBursts::9           1041742                       # Per bank write bursts
system.mem_ctrls.perBankRdBursts::10          1041992                       # Per bank write bursts
system.mem_ctrls.perBankRdBursts::11          1042585                       # Per bank write bursts
system.mem_ctrls.perBankRdBursts::12          1042477                       # Per bank write bursts
system.mem_ctrls.perBankRdBursts::13          1042294                       # Per bank write bursts
system.mem_ctrls.perBankRdBursts::14          1042104                       # Per bank write bursts
system.mem_ctrls.perBankRdBursts::15          1042271                       # Per bank write bursts
system.mem_ctrls.perBankWrBursts::0            521971                       # Per bank write bursts
system.mem_ctrls.perBankWrBursts::1            521714                       # Per bank write bursts
system.mem_ctrls.perBankWrBursts::2            521905                       # Per bank write bursts
system.mem_ctrls.perBankWrBursts::3            522268                       # Per bank write bursts
system.mem_ctrls.perBankWrBursts::4            522106                       # Per bank write bursts
system.mem_ctrls.perBankWrBursts::5            522254                       # Per bank write bursts
system.mem_ctrls.perBankWrBursts::6            521937                       # Per bank write bursts
system.mem_ctrls.perBankWrBursts::7            521977                       # Per bank write bursts
system.mem_ctrls.perBankWrBursts::8            521717                       # Per bank write bursts
system.mem_ctrls.perBankWrBursts::9            521942                       # Per bank write bursts
system.mem_ctrls.perBankWrBursts::10           522109                       # Per bank write bursts
system.mem_ctrls.perBankWrBursts::11           522202                       # Per bank write bursts
system.mem_ctrls.perBankWrBursts::12           522221                       # Per bank write bursts
system.mem_ctrls.perBankWrBursts::13           522197                       # Per bank write bursts
system.mem_ctrls.perBankWrBursts::14           522035                       # Per bank write bursts
system.mem_ctrls.perBankWrBursts::15           522091                       # Per bank write bursts
system.mem_ctrls.numRdRetry                         0                       # Number of times read queue was full causing retry
system.mem_ctrls.numWrRetry                         0                       # Number of times write queue was full causing retry
system.mem_ctrls.totGap                  2392635211500                       # Total gap between requests
system.mem_ctrls.readPktSize::0                     0                       # Read request sizes (log2)
system.mem_ctrls.readPktSize::1                     0                       # Read request sizes (log2)
system.mem_ctrls.readPktSize::2                     0                       # Read request sizes (log2)
system.mem_ctrls.readPktSize::3                     0                       # Read request sizes (log2)
system.mem_ctrls.readPktSize::4                     0                       # Read request sizes (log2)
system.mem_ctrls.readPktSize::5              16671919                       # Read request sizes (log2)
system.mem_ctrls.readPktSize::6                     0                       # Read request sizes (log2)
system.mem_ctrls.writePktSize::0                    0                       # Write request sizes (log2)
system.mem_ctrls.writePktSize::1                    0                       # Write request sizes (log2)
system.mem_ctrls.writePktSize::2                    0                       # Write request sizes (log2)
system.mem_ctrls.writePktSize::3                    0                       # Write request sizes (log2)
system.mem_ctrls.writePktSize::4                    0                       # Write request sizes (log2)
system.mem_ctrls.writePktSize::5             16625409                       # Write request sizes (log2)
system.mem_ctrls.writePktSize::6                    0                       # Write request sizes (log2)
system.mem_ctrls.rdQLenPdf::0                16671902                       # What read queue length does an incoming req see
system.mem_ctrls.rdQLenPdf::1                       1                       # What read queue length does an incoming req see
system.mem_ctrls.rdQLenPdf::2                       0                       # What read queue length does an incoming req see
system.mem_ctrls.rdQLenPdf::3                       0                       # What read queue length does an incoming req see
system.mem_ctrls.rdQLenPdf::4                       0                       # What read queue length does an incoming req see
system.mem_ctrls.rdQLenPdf::5                       0                       # What read queue length does an incoming req see
system.mem_ctrls.rdQLenPdf::6                       0                       # What read queue length does an incoming req see
system.mem_ctrls.rdQLenPdf::7                       0                       # What read queue length does an incoming req see
system.mem_ctrls.rdQLenPdf::8                       0                       # What read queue length does an incoming req see
system.mem_ctrls.rdQLenPdf::9                       0                       # What read queue length does an incoming req see
system.mem_ctrls.rdQLenPdf::10                      0                       # What read queue length does an incoming req see
system.mem_ctrls.rdQLenPdf::11                      0                       # What read queue length does an incoming req see
system.mem_ctrls.rdQLenPdf::12                      0                       # What read queue length does an incoming req see
system.mem_ctrls.rdQLenPdf::13                      0                       # What read queue length does an incoming req see
system.mem_ctrls.rdQLenPdf::14                      0                       # What read queue length does an incoming req see
system.mem_ctrls.rdQLenPdf::15                      0                       # What read queue length does an incoming req see
system.mem_ctrls.rdQLenPdf::16                      0                       # What read queue length does an incoming req see
system.mem_ctrls.rdQLenPdf::17                      0                       # What read queue length does an incoming req see
system.mem_ctrls.rdQLenPdf::18                      0                       # What read queue length does an incoming req see
system.mem_ctrls.rdQLenPdf::19                      0                       # What read queue length does an incoming req see
system.mem_ctrls.rdQLenPdf::20                      0                       # What read queue length does an incoming req see
system.mem_ctrls.rdQLenPdf::21                      0                       # What read queue length does an incoming req see
system.mem_ctrls.rdQLenPdf::22                      0                       # What read queue length does an incoming req see
system.mem_ctrls.rdQLenPdf::23                      0                       # What read queue length does an incoming req see
system.mem_ctrls.rdQLenPdf::24                      0                       # What read queue length does an incoming req see
system.mem_ctrls.rdQLenPdf::25                      0                       # What read queue length does an incoming req see
system.mem_ctrls.rdQLenPdf::26                      0                       # What read queue length does an incoming req see
system.mem_ctrls.rdQLenPdf::27                      0                       # What read queue length does an incoming req see
system.mem_ctrls.rdQLenPdf::28                      0                       # What read queue length does an incoming req see
system.mem_ctrls.rdQLenPdf::29                      0                       # What read queue length does an incoming req see
system.mem_ctrls.rdQLenPdf::30                      0                       # What read queue length does an incoming req see
system.mem_ctrls.rdQLenPdf::31                      0                       # What read queue length does an incoming req see
system.mem_ctrls.wrQLenPdf::0                       1                       # What write queue length does an incoming req see
system.mem_ctrls.wrQLenPdf::1                       1                       # What write queue length does an incoming req see
system.mem_ctrls.wrQLenPdf::2                       1                       # What write queue length does an incoming req see
system.mem_ctrls.wrQLenPdf::3                       1                       # What write queue length does an incoming req see
system.mem_ctrls.wrQLenPdf::4                       1                       # What write queue length does an incoming req see
system.mem_ctrls.wrQLenPdf::5                       1                       # What write queue length does an incoming req see
system.mem_ctrls.wrQLenPdf::6                       1                       # What write queue length does an incoming req see
system.mem_ctrls.wrQLenPdf::7                       1                       # What write queue length does an incoming req see
system.mem_ctrls.wrQLenPdf::8                       1                       # What write queue length does an incoming req see
system.mem_ctrls.wrQLenPdf::9                       1                       # What write queue length does an incoming req see
system.mem_ctrls.wrQLenPdf::10                      1                       # What write queue length does an incoming req see
system.mem_ctrls.wrQLenPdf::11                      1                       # What write queue length does an incoming req see
system.mem_ctrls.wrQLenPdf::12                      1                       # What write queue length does an incoming req see
system.mem_ctrls.wrQLenPdf::13                      1                       # What write queue length does an incoming req see
system.mem_ctrls.wrQLenPdf::14                      1                       # What write queue length does an incoming req see
system.mem_ctrls.wrQLenPdf::15                   3868                       # What write queue length does an incoming req see
system.mem_ctrls.wrQLenPdf::16                   4647                       # What write queue length does an incoming req see
system.mem_ctrls.wrQLenPdf::17                 521440                       # What write queue length does an incoming req see
system.mem_ctrls.wrQLenPdf::18                 521504                       # What write queue length does an incoming req see
system.mem_ctrls.wrQLenPdf::19                 521504                       # What write queue length does an incoming req see
system.mem_ctrls.wrQLenPdf::20                 521505                       # What write queue length does an incoming req see
system.mem_ctrls.wrQLenPdf::21                 521504                       # What write queue length does an incoming req see
system.mem_ctrls.wrQLenPdf::22                 521504                       # What write queue length does an incoming req see
system.mem_ctrls.wrQLenPdf::23                 521506                       # What write queue length does an incoming req see
system.mem_ctrls.wrQLenPdf::24                 521504                       # What write queue length does an incoming req see
system.mem_ctrls.wrQLenPdf::25                 521505                       # What write queue length does an incoming req see
system.mem_ctrls.wrQLenPdf::26                 521508                       # What write queue length does an incoming req see
system.mem_ctrls.wrQLenPdf::27                 521508                       # What write queue length does an incoming req see
system.mem_ctrls.wrQLenPdf::28                 521512                       # What write queue length does an incoming req see
system.mem_ctrls.wrQLenPdf::29                 521627                       # What write queue length does an incoming req see
system.mem_ctrls.wrQLenPdf::30                 521507                       # What write queue length does an incoming req see
system.mem_ctrls.wrQLenPdf::31                 521506                       # What write queue length does an incoming req see
system.mem_ctrls.wrQLenPdf::32                 521502                       # What write queue length does an incoming req see
system.mem_ctrls.wrQLenPdf::33                      1                       # What write queue length does an incoming req see
system.mem_ctrls.wrQLenPdf::34                      1                       # What write queue length does an incoming req see
system.mem_ctrls.wrQLenPdf::35                      0                       # What write queue length does an incoming req see
system.mem_ctrls.wrQLenPdf::36                      0                       # What write queue length does an incoming req see
system.mem_ctrls.wrQLenPdf::37                      0                       # What write queue length does an incoming req see
system.mem_ctrls.wrQLenPdf::38                      0                       # What write queue length does an incoming req see
system.mem_ctrls.wrQLenPdf::39                      0                       # What write queue length does an incoming req see
system.mem_ctrls.wrQLenPdf::40                      0                       # What write queue length does an incoming req see
system.mem_ctrls.wrQLenPdf::41                      0                       # What write queue length does an incoming req see
system.mem_ctrls.wrQLenPdf::42                      0                       # What write queue length does an incoming req see
system.mem_ctrls.wrQLenPdf::43                      0                       # What write queue length does an incoming req see
system.mem_ctrls.wrQLenPdf::44                      0                       # What write queue length does an incoming req see
system.mem_ctrls.wrQLenPdf::45                      0                       # What write queue length does an incoming req see
system.mem_ctrls.wrQLenPdf::46                      0                       # What write queue length does an incoming req see
system.mem_ctrls.wrQLenPdf::47                      0                       # What write queue length does an incoming req see
system.mem_ctrls.wrQLenPdf::48                      0                       # What write queue length does an incoming req see
system.mem_ctrls.wrQLenPdf::49                      0                       # What write queue length does an incoming req see
system.mem_ctrls.wrQLenPdf::50                      0                       # What write queue length does an incoming req see
system.mem_ctrls.wrQLenPdf::51                      0                       # What write queue length does an incoming req see
system.mem_ctrls.wrQLenPdf::52                      0                       # What write queue length does an incoming req see
system.mem_ctrls.wrQLenPdf::53                      0                       # What write queue length does an incoming req see
system.mem_ctrls.wrQLenPdf::54                      0                       # What write queue length does an incoming req see
system.mem_ctrls.wrQLenPdf::55                      0                       # What write queue length does an incoming req see
system.mem_ctrls.wrQLenPdf::56                      0                       # What write queue length does an incoming req see
system.mem_ctrls.wrQLenPdf::57                      0                       # What write queue length does an incoming req see
system.mem_ctrls.wrQLenPdf::58                      0                       # What write queue length does an incoming req see
system.mem_ctrls.wrQLenPdf::59                      0                       # What write queue length does an incoming req see
system.mem_ctrls.wrQLenPdf::60                      0                       # What write queue length does an incoming req see
system.mem_ctrls.wrQLenPdf::61                      0                       # What write queue length does an incoming req see
system.mem_ctrls.wrQLenPdf::62                      0                       # What write queue length does an incoming req see
system.mem_ctrls.wrQLenPdf::63                      0                       # What write queue length does an incoming req see
system.mem_ctrls.bytesPerActivate::samples      2017950                       # Bytes accessed per row activation
system.mem_ctrls.bytesPerActivate::mean    793.662448                       # Bytes accessed per row activation
system.mem_ctrls.bytesPerActivate::gmean   609.908122                       # Bytes accessed per row activation
system.mem_ctrls.bytesPerActivate::stdev   358.233368                       # Bytes accessed per row activation
system.mem_ctrls.bytesPerActivate::0-127       240314     11.91%     11.91% # Bytes accessed per row activation
system.mem_ctrls.bytesPerActivate::128-255        75840      3.76%     15.67% # Bytes accessed per row activation
system.mem_ctrls.bytesPerActivate::256-383        62902      3.12%     18.78% # Bytes accessed per row activation
system.mem_ctrls.bytesPerActivate::384-511        58398      2.89%     21.68% # Bytes accessed per row activation
system.mem_ctrls.bytesPerActivate::512-639        91760      4.55%     26.23% # Bytes accessed per row activation
system.mem_ctrls.bytesPerActivate::640-767        59572      2.95%     29.18% # Bytes accessed per row activation
system.mem_ctrls.bytesPerActivate::768-895        66605      3.30%     32.48% # Bytes accessed per row activation
system.mem_ctrls.bytesPerActivate::896-1023        95563      4.74%     37.21% # Bytes accessed per row activation
system.mem_ctrls.bytesPerActivate::1024-1151      1266996     62.79%    100.00% # Bytes accessed per row activation
system.mem_ctrls.bytesPerActivate::total      2017950                       # Bytes accessed per row activation
system.mem_ctrls.rdPerTurnAround::samples       521502                       # Reads before turning the bus around for writes
system.mem_ctrls.rdPerTurnAround::mean      31.968970                       # Reads before turning the bus around for writes
system.mem_ctrls.rdPerTurnAround::gmean     31.881616                       # Reads before turning the bus around for writes
system.mem_ctrls.rdPerTurnAround::stdev     32.648890                       # Reads before turning the bus around for writes
system.mem_ctrls.rdPerTurnAround::0-1023       521499    100.00%    100.00% # Reads before turning the bus around for writes
system.mem_ctrls.rdPerTurnAround::2048-3071            2      0.00%    100.00% # Reads before turning the bus around for writes
system.mem_ctrls.rdPerTurnAround::22528-23551            1      0.00%    100.00% # Reads before turning the bus around for writes
system.mem_ctrls.rdPerTurnAround::total        521502                       # Reads before turning the bus around for writes
system.mem_ctrls.wrPerTurnAround::samples       521502                       # Writes before turning the bus around for reads
system.mem_ctrls.wrPerTurnAround::mean      16.016518                       # Writes before turning the bus around for reads
system.mem_ctrls.wrPerTurnAround::gmean     16.015598                       # Writes before turning the bus around for reads
system.mem_ctrls.wrPerTurnAround::stdev      0.178508                       # Writes before turning the bus around for reads
system.mem_ctrls.wrPerTurnAround::16           516856     99.11%     99.11% # Writes before turning the bus around for reads
system.mem_ctrls.wrPerTurnAround::17              778      0.15%     99.26% # Writes before turning the bus around for reads
system.mem_ctrls.wrPerTurnAround::18             3772      0.72%     99.98% # Writes before turning the bus around for reads
system.mem_ctrls.wrPerTurnAround::19               93      0.02%    100.00% # Writes before turning the bus around for reads
system.mem_ctrls.wrPerTurnAround::20                2      0.00%    100.00% # Writes before turning the bus around for reads
system.mem_ctrls.wrPerTurnAround::21                1      0.00%    100.00% # Writes before turning the bus around for reads
system.mem_ctrls.wrPerTurnAround::total        521502                       # Writes before turning the bus around for reads
system.mem_ctrls.totQLat                 247698379250                       # Total ticks spent queuing
system.mem_ctrls.totMemAccLat            560296560500                       # Total ticks spent from burst creation until serviced by the DRAM
system.mem_ctrls.totBusLat                83359515000                       # Total ticks spent in databus transfers
system.mem_ctrls.avgQLat                     14857.23                       # Average queueing delay per DRAM burst
system.mem_ctrls.avgBusLat                    5000.00                       # Average bus latency per DRAM burst
system.mem_ctrls.avgMemAccLat                33607.23                       # Average memory access latency per DRAM burst
system.mem_ctrls.avgRdBW                       445.95                       # Average DRAM read bandwidth in MiByte/s
system.mem_ctrls.avgWrBW                       223.42                       # Average achieved write bandwidth in MiByte/s
system.mem_ctrls.avgRdBWSys                    222.97                       # Average system read bandwidth in MiByte/s
system.mem_ctrls.avgWrBWSys                    222.35                       # Average system write bandwidth in MiByte/s
system.mem_ctrls.peakBW                      12800.00                       # Theoretical peak bandwidth in MiByte/s
system.mem_ctrls.busUtil                         5.23                       # Data bus utilization in percentage
system.mem_ctrls.busUtilRead                     3.48                       # Data bus utilization in percentage for reads
system.mem_ctrls.busUtilWrite                    1.75                       # Data bus utilization in percentage for writes
system.mem_ctrls.avgRdQLen                       1.00                       # Average read queue length when enqueuing
system.mem_ctrls.avgWrQLen                      25.36                       # Average write queue length when enqueuing
system.mem_ctrls.readRowHits                 15303484                       # Number of row buffer hits during reads
system.mem_ctrls.writeRowHits                 7703115                       # Number of row buffer hits during writes
system.mem_ctrls.readRowHitRate                 91.79                       # Row buffer hit rate for reads
system.mem_ctrls.writeRowHitRate                92.22                       # Row buffer hit rate for writes
system.mem_ctrls.avgGap                      71856.67                       # Average gap between requests
system.mem_ctrls.pageHitRate                    91.94                       # Row buffer hit rate, read and write combined
system.mem_ctrls_0.actEnergy               7208715360                       # Energy for activate commands per rank (pJ)
system.mem_ctrls_0.preEnergy               3831523080                       # Energy for precharge commands per rank (pJ)
system.mem_ctrls_0.readEnergy             59513028120                       # Energy for read commands per rank (pJ)
system.mem_ctrls_0.writeEnergy            21799409040                       # Energy for write commands per rank (pJ)
system.mem_ctrls_0.refreshEnergy         113898938400.000031                       # Energy for refresh commands per rank (pJ)
system.mem_ctrls_0.actBackEnergy         147470666760                       # Energy for active background per rank (pJ)
system.mem_ctrls_0.preBackEnergy           8876880000                       # Energy for precharge background per rank (pJ)
system.mem_ctrls_0.actPowerDownEnergy    296569450170                       # Energy for active power-down per rank (pJ)
system.mem_ctrls_0.prePowerDownEnergy     95091865920                       # Energy for precharge power-down per rank (pJ)
system.mem_ctrls_0.selfRefreshEnergy     290667317055                       # Energy for self refresh per rank (pJ)
system.mem_ctrls_0.totalEnergy           1044954666285                       # Total energy per rank (pJ)
system.mem_ctrls_0.averagePower            436.733573                       # Core power per rank (mW)
system.mem_ctrls_0.totalIdleTime         2046076298500                       # Total Idle time Per DRAM Rank
system.mem_ctrls_0.memoryStateTime::IDLE   9962716000                       # Time in different power states
system.mem_ctrls_0.memoryStateTime::REF   48360366000                       # Time in different power states
system.mem_ctrls_0.memoryStateTime::SREF 1148076164250                       # Time in different power states
system.mem_ctrls_0.memoryStateTime::PRE_PDN 247635617000                       # Time in different power states
system.mem_ctrls_0.memoryStateTime::ACT  288244399250                       # Time in different power states
system.mem_ctrls_0.memoryStateTime::ACT_PDN 650380068000                       # Time in different power states
system.mem_ctrls_1.actEnergy               7199447640                       # Energy for activate commands per rank (pJ)
system.mem_ctrls_1.preEnergy               3826597170                       # Energy for precharge commands per rank (pJ)
system.mem_ctrls_1.readEnergy             59524359300                       # Energy for read commands per rank (pJ)
system.mem_ctrls_1.writeEnergy            21801403080                       # Energy for write commands per rank (pJ)
system.mem_ctrls_1.refreshEnergy         113384484720.000031                       # Energy for refresh commands per rank (pJ)
system.mem_ctrls_1.actBackEnergy         147290116410                       # Energy for active background per rank (pJ)
system.mem_ctrls_1.preBackEnergy           8845642080                       # Energy for precharge background per rank (pJ)
system.mem_ctrls_1.actPowerDownEnergy    295608512250                       # Energy for active power-down per rank (pJ)
system.mem_ctrls_1.prePowerDownEnergy     94220921760                       # Energy for precharge power-down per rank (pJ)
system.mem_ctrls_1.selfRefreshEnergy     291705152490                       # Energy for self refresh per rank (pJ)
system.mem_ctrls_1.totalEnergy           1043434947840                       # Total energy per rank (pJ)
system.mem_ctrls_1.averagePower            436.098415                       # Core power per rank (mW)
system.mem_ctrls_1.totalIdleTime         2046555499250                       # Total Idle time Per DRAM Rank
system.mem_ctrls_1.memoryStateTime::IDLE   9895537000                       # Time in different power states
system.mem_ctrls_1.memoryStateTime::REF   48141096000                       # Time in different power states
system.mem_ctrls_1.memoryStateTime::SREF 1152925698000                       # Time in different power states
system.mem_ctrls_1.memoryStateTime::PRE_PDN 245367763250                       # Time in different power states
system.mem_ctrls_1.memoryStateTime::ACT  288056884250                       # Time in different power states
system.mem_ctrls_1.memoryStateTime::ACT_PDN 648272352000                       # Time in different power states
system.pwrStateResidencyTicks::UNDEFINED 2392659330500                       # Cumulative time (in ticks) in various power states
system.cpu_voltage_domain.voltage                   1                       # Voltage in Volts
system.cpu_clk_domain.clock                       500                       # Clock period in ticks
system.cpu.dtb.walker.pwrStateResidencyTicks::UNDEFINED 2392659330500                       # Cumulative time (in ticks) in various power states
system.cpu.apic_clk_domain.clock                 8000                       # Clock period in ticks
system.cpu.interrupts.pwrStateResidencyTicks::UNDEFINED 2392659330500                       # Cumulative time (in ticks) in various power states
system.cpu.itb.walker.pwrStateResidencyTicks::UNDEFINED 2392659330500                       # Cumulative time (in ticks) in various power states
system.cpu.workload.num_syscalls                  196                       # Number of system calls
system.cpu.pwrStateResidencyTicks::ON    2392659330500                       # Cumulative time (in ticks) in various power states
system.cpu.numCycles                       4785318661                       # number of cpu cycles simulated
system.cpu.numWorkItemsStarted                      0                       # number of work items this cpu started
system.cpu.numWorkItemsCompleted                    0                       # number of work items this cpu completed
system.cpu.committedInsts                   500000000                       # Number of instructions committed
system.cpu.committedOps                     823366692                       # Number of ops (including micro ops) committed
system.cpu.num_int_alu_accesses             821415783                       # Number of integer alu accesses
system.cpu.num_fp_alu_accesses               66619246                       # Number of float alu accesses
system.cpu.num_func_calls                     5652773                       # number of times a function call or return occured
system.cpu.num_conditional_control_insts     57208853                       # number of instructions that are conditional controls
system.cpu.num_int_insts                    821415783                       # number of integer instructions
system.cpu.num_fp_insts                      66619246                       # number of float instructions
system.cpu.num_int_register_reads          1637209917                       # number of times the integer registers were read
system.cpu.num_int_register_writes          639871082                       # number of times the integer registers were written
system.cpu.num_fp_register_reads             66766836                       # number of times the floating registers were read
system.cpu.num_fp_register_writes              208042                       # number of times the floating registers were written
system.cpu.num_cc_register_reads            319714243                       # number of times the CC registers were read
system.cpu.num_cc_register_writes           287984022                       # number of times the CC registers were written
system.cpu.num_mem_refs                     271673939                       # number of memory refs
system.cpu.num_load_insts                   157213791                       # Number of load instructions
system.cpu.num_store_insts                  114460148                       # Number of store instructions
system.cpu.num_idle_cycles                          0                       # Number of idle cycles
system.cpu.num_busy_cycles                 4785318661                       # Number of busy cycles
system.cpu.not_idle_fraction                        1                       # Percentage of non-idle cycles
system.cpu.idle_fraction                            0                       # Percentage of idle cycles
system.cpu.Branches                          69678400                       # Number of branches fetched
system.cpu.op_class::No_OpClass                202234      0.02%      0.02% # Class of executed instruction
system.cpu.op_class::IntAlu                 550028817     66.80%     66.83% # Class of executed instruction
system.cpu.op_class::IntMult                   125092      0.02%     66.84% # Class of executed instruction
system.cpu.op_class::IntDiv                   1153479      0.14%     66.98% # Class of executed instruction
system.cpu.op_class::FloatAdd                  183131      0.02%     67.00% # Class of executed instruction
system.cpu.op_class::FloatCmp                       0      0.00%     67.00% # Class of executed instruction
system.cpu.op_class::FloatCvt                       0      0.00%     67.00% # Class of executed instruction
system.cpu.op_class::FloatMult                      0      0.00%     67.00% # Class of executed instruction
system.cpu.op_class::FloatDiv                       0      0.00%     67.00% # Class of executed instruction
system.cpu.op_class::FloatSqrt                      0      0.00%     67.00% # Class of executed instruction
system.cpu.op_class::SimdAdd                        0      0.00%     67.00% # Class of executed instruction
system.cpu.op_class::SimdAddAcc                     0      0.00%     67.00% # Class of executed instruction
system.cpu.op_class::SimdAlu                        0      0.00%     67.00% # Class of executed instruction
system.cpu.op_class::SimdCmp                        0      0.00%     67.00% # Class of executed instruction
system.cpu.op_class::SimdCvt                        0      0.00%     67.00% # Class of executed instruction
system.cpu.op_class::SimdMisc                       0      0.00%     67.00% # Class of executed instruction
system.cpu.op_class::SimdMult                       0      0.00%     67.00% # Class of executed instruction
system.cpu.op_class::SimdMultAcc                    0      0.00%     67.00% # Class of executed instruction
system.cpu.op_class::SimdShift                      0      0.00%     67.00% # Class of executed instruction
system.cpu.op_class::SimdShiftAcc                   0      0.00%     67.00% # Class of executed instruction
system.cpu.op_class::SimdSqrt                       0      0.00%     67.00% # Class of executed instruction
system.cpu.op_class::SimdFloatAdd                   0      0.00%     67.00% # Class of executed instruction
system.cpu.op_class::SimdFloatAlu                   0      0.00%     67.00% # Class of executed instruction
system.cpu.op_class::SimdFloatCmp                   0      0.00%     67.00% # Class of executed instruction
system.cpu.op_class::SimdFloatCvt                   0      0.00%     67.00% # Class of executed instruction
system.cpu.op_class::SimdFloatDiv                   0      0.00%     67.00% # Class of executed instruction
system.cpu.op_class::SimdFloatMisc                  0      0.00%     67.00% # Class of executed instruction
system.cpu.op_class::SimdFloatMult                  0      0.00%     67.00% # Class of executed instruction
system.cpu.op_class::SimdFloatMultAcc               0      0.00%     67.00% # Class of executed instruction
system.cpu.op_class::SimdFloatSqrt                  0      0.00%     67.00% # Class of executed instruction
system.cpu.op_class::MemRead                157213791     19.09%     86.10% # Class of executed instruction
system.cpu.op_class::MemWrite               114460148     13.90%    100.00% # Class of executed instruction
system.cpu.op_class::IprAccess                      0      0.00%    100.00% # Class of executed instruction
system.cpu.op_class::InstPrefetch                   0      0.00%    100.00% # Class of executed instruction
system.cpu.op_class::total                  823366692                       # Class of executed instruction
system.cpu.dcache.tags.pwrStateResidencyTicks::UNDEFINED 2392659330500                       # Cumulative time (in ticks) in various power states
system.cpu.dcache.tags.replacements          16690842                       # number of replacements
system.cpu.dcache.tags.tagsinuse          4092.443098                       # Cycle average of tags in use
system.cpu.dcache.tags.total_refs           254979618                       # Total number of references to valid blocks.
system.cpu.dcache.tags.sampled_refs          16694938                       # Sample count of references to valid blocks.
system.cpu.dcache.tags.avg_refs             15.272870                       # Average number of references to valid blocks.
system.cpu.dcache.tags.warmup_cycle        8173448500                       # Cycle when the warmup percentage was hit.
system.cpu.dcache.tags.occ_blocks::cpu.data  4092.443098                       # Average occupied blocks per requestor
system.cpu.dcache.tags.occ_percent::cpu.data     0.999132                       # Average percentage of cache occupancy
system.cpu.dcache.tags.occ_percent::total     0.999132                       # Average percentage of cache occupancy
system.cpu.dcache.tags.occ_task_id_blocks::1024         4096                       # Occupied blocks per task id
system.cpu.dcache.tags.age_task_id_blocks_1024::1           17                       # Occupied blocks per task id
system.cpu.dcache.tags.age_task_id_blocks_1024::2           98                       # Occupied blocks per task id
system.cpu.dcache.tags.age_task_id_blocks_1024::3         1010                       # Occupied blocks per task id
system.cpu.dcache.tags.age_task_id_blocks_1024::4         2971                       # Occupied blocks per task id
system.cpu.dcache.tags.occ_task_id_percent::1024            1                       # Percentage of cache occupancy per task id
system.cpu.dcache.tags.tag_accesses        1103393162                       # Number of tag accesses
system.cpu.dcache.tags.data_accesses       1103393162                       # Number of data accesses
system.cpu.dcache.pwrStateResidencyTicks::UNDEFINED 2392659330500                       # Cumulative time (in ticks) in various power states
system.cpu.dcache.ReadReq_hits::cpu.data    157117412                       # number of ReadReq hits
system.cpu.dcache.ReadReq_hits::total       157117412                       # number of ReadReq hits
system.cpu.dcache.WriteReq_hits::cpu.data     97862206                       # number of WriteReq hits
system.cpu.dcache.WriteReq_hits::total       97862206                       # number of WriteReq hits
system.cpu.dcache.demand_hits::cpu.data     254979618                       # number of demand (read+write) hits
system.cpu.dcache.demand_hits::total        254979618                       # number of demand (read+write) hits
system.cpu.dcache.overall_hits::cpu.data    254979618                       # number of overall hits
system.cpu.dcache.overall_hits::total       254979618                       # number of overall hits
system.cpu.dcache.ReadReq_misses::cpu.data        96983                       # number of ReadReq misses
system.cpu.dcache.ReadReq_misses::total         96983                       # number of ReadReq misses
system.cpu.dcache.WriteReq_misses::cpu.data     16597955                       # number of WriteReq misses
system.cpu.dcache.WriteReq_misses::total     16597955                       # number of WriteReq misses
system.cpu.dcache.demand_misses::cpu.data     16694938                       # number of demand (read+write) misses
system.cpu.dcache.demand_misses::total       16694938                       # number of demand (read+write) misses
system.cpu.dcache.overall_misses::cpu.data     16694938                       # number of overall misses
system.cpu.dcache.overall_misses::total      16694938                       # number of overall misses
system.cpu.dcache.ReadReq_miss_latency::cpu.data  25393739500                       # number of ReadReq miss cycles
system.cpu.dcache.ReadReq_miss_latency::total  25393739500                       # number of ReadReq miss cycles
system.cpu.dcache.WriteReq_miss_latency::cpu.data 1422797316000                       # number of WriteReq miss cycles
system.cpu.dcache.WriteReq_miss_latency::total 1422797316000                       # number of WriteReq miss cycles
system.cpu.dcache.demand_miss_latency::cpu.data 1448191055500                       # number of demand (read+write) miss cycles
system.cpu.dcache.demand_miss_latency::total 1448191055500                       # number of demand (read+write) miss cycles
system.cpu.dcache.overall_miss_latency::cpu.data 1448191055500                       # number of overall miss cycles
system.cpu.dcache.overall_miss_latency::total 1448191055500                       # number of overall miss cycles
system.cpu.dcache.ReadReq_accesses::cpu.data    157214395                       # number of ReadReq accesses(hits+misses)
system.cpu.dcache.ReadReq_accesses::total    157214395                       # number of ReadReq accesses(hits+misses)
system.cpu.dcache.WriteReq_accesses::cpu.data    114460161                       # number of WriteReq accesses(hits+misses)
system.cpu.dcache.WriteReq_accesses::total    114460161                       # number of WriteReq accesses(hits+misses)
system.cpu.dcache.demand_accesses::cpu.data    271674556                       # number of demand (read+write) accesses
system.cpu.dcache.demand_accesses::total    271674556                       # number of demand (read+write) accesses
system.cpu.dcache.overall_accesses::cpu.data    271674556                       # number of overall (read+write) accesses
system.cpu.dcache.overall_accesses::total    271674556                       # number of overall (read+write) accesses
system.cpu.dcache.ReadReq_miss_rate::cpu.data     0.000617                       # miss rate for ReadReq accesses
system.cpu.dcache.ReadReq_miss_rate::total     0.000617                       # miss rate for ReadReq accesses
system.cpu.dcache.WriteReq_miss_rate::cpu.data     0.145011                       # miss rate for WriteReq accesses
system.cpu.dcache.WriteReq_miss_rate::total     0.145011                       # miss rate for WriteReq accesses
system.cpu.dcache.demand_miss_rate::cpu.data     0.061452                       # miss rate for demand accesses
system.cpu.dcache.demand_miss_rate::total     0.061452                       # miss rate for demand accesses
system.cpu.dcache.overall_miss_rate::cpu.data     0.061452                       # miss rate for overall accesses
system.cpu.dcache.overall_miss_rate::total     0.061452                       # miss rate for overall accesses
system.cpu.dcache.ReadReq_avg_miss_latency::cpu.data 261837.017828                       # average ReadReq miss latency
system.cpu.dcache.ReadReq_avg_miss_latency::total 261837.017828                       # average ReadReq miss latency
system.cpu.dcache.WriteReq_avg_miss_latency::cpu.data 85721.241924                       # average WriteReq miss latency
system.cpu.dcache.WriteReq_avg_miss_latency::total 85721.241924                       # average WriteReq miss latency
system.cpu.dcache.demand_avg_miss_latency::cpu.data 86744.320674                       # average overall miss latency
system.cpu.dcache.demand_avg_miss_latency::total 86744.320674                       # average overall miss latency
system.cpu.dcache.overall_avg_miss_latency::cpu.data 86744.320674                       # average overall miss latency
system.cpu.dcache.overall_avg_miss_latency::total 86744.320674                       # average overall miss latency
system.cpu.dcache.blocked_cycles::no_mshrs            0                       # number of cycles access was blocked
system.cpu.dcache.blocked_cycles::no_targets            0                       # number of cycles access was blocked
system.cpu.dcache.blocked::no_mshrs                 0                       # number of cycles access was blocked
system.cpu.dcache.blocked::no_targets               0                       # number of cycles access was blocked
system.cpu.dcache.avg_blocked_cycles::no_mshrs          nan                       # average number of cycles each access was blocked
system.cpu.dcache.avg_blocked_cycles::no_targets          nan                       # average number of cycles each access was blocked
system.cpu.dcache.writebacks::writebacks     16669992                       # number of writebacks
system.cpu.dcache.writebacks::total          16669992                       # number of writebacks
system.cpu.dcache.ReadReq_mshr_misses::cpu.data        96983                       # number of ReadReq MSHR misses
system.cpu.dcache.ReadReq_mshr_misses::total        96983                       # number of ReadReq MSHR misses
system.cpu.dcache.WriteReq_mshr_misses::cpu.data     16597955                       # number of WriteReq MSHR misses
system.cpu.dcache.WriteReq_mshr_misses::total     16597955                       # number of WriteReq MSHR misses
system.cpu.dcache.demand_mshr_misses::cpu.data     16694938                       # number of demand (read+write) MSHR misses
system.cpu.dcache.demand_mshr_misses::total     16694938                       # number of demand (read+write) MSHR misses
system.cpu.dcache.overall_mshr_misses::cpu.data     16694938                       # number of overall MSHR misses
system.cpu.dcache.overall_mshr_misses::total     16694938                       # number of overall MSHR misses
system.cpu.dcache.ReadReq_mshr_miss_latency::cpu.data  25296756500                       # number of ReadReq MSHR miss cycles
system.cpu.dcache.ReadReq_mshr_miss_latency::total  25296756500                       # number of ReadReq MSHR miss cycles
system.cpu.dcache.WriteReq_mshr_miss_latency::cpu.data 1406199361000                       # number of WriteReq MSHR miss cycles
system.cpu.dcache.WriteReq_mshr_miss_latency::total 1406199361000                       # number of WriteReq MSHR miss cycles
system.cpu.dcache.demand_mshr_miss_latency::cpu.data 1431496117500                       # number of demand (read+write) MSHR miss cycles
system.cpu.dcache.demand_mshr_miss_latency::total 1431496117500                       # number of demand (read+write) MSHR miss cycles
system.cpu.dcache.overall_mshr_miss_latency::cpu.data 1431496117500                       # number of overall MSHR miss cycles
system.cpu.dcache.overall_mshr_miss_latency::total 1431496117500                       # number of overall MSHR miss cycles
system.cpu.dcache.ReadReq_mshr_miss_rate::cpu.data     0.000617                       # mshr miss rate for ReadReq accesses
system.cpu.dcache.ReadReq_mshr_miss_rate::total     0.000617                       # mshr miss rate for ReadReq accesses
system.cpu.dcache.WriteReq_mshr_miss_rate::cpu.data     0.145011                       # mshr miss rate for WriteReq accesses
system.cpu.dcache.WriteReq_mshr_miss_rate::total     0.145011                       # mshr miss rate for WriteReq accesses
system.cpu.dcache.demand_mshr_miss_rate::cpu.data     0.061452                       # mshr miss rate for demand accesses
system.cpu.dcache.demand_mshr_miss_rate::total     0.061452                       # mshr miss rate for demand accesses
system.cpu.dcache.overall_mshr_miss_rate::cpu.data     0.061452                       # mshr miss rate for overall accesses
system.cpu.dcache.overall_mshr_miss_rate::total     0.061452                       # mshr miss rate for overall accesses
system.cpu.dcache.ReadReq_avg_mshr_miss_latency::cpu.data 260837.017828                       # average ReadReq mshr miss latency
system.cpu.dcache.ReadReq_avg_mshr_miss_latency::total 260837.017828                       # average ReadReq mshr miss latency
system.cpu.dcache.WriteReq_avg_mshr_miss_latency::cpu.data 84721.241924                       # average WriteReq mshr miss latency
system.cpu.dcache.WriteReq_avg_mshr_miss_latency::total 84721.241924                       # average WriteReq mshr miss latency
system.cpu.dcache.demand_avg_mshr_miss_latency::cpu.data 85744.320674                       # average overall mshr miss latency
system.cpu.dcache.demand_avg_mshr_miss_latency::total 85744.320674                       # average overall mshr miss latency
system.cpu.dcache.overall_avg_mshr_miss_latency::cpu.data 85744.320674                       # average overall mshr miss latency
system.cpu.dcache.overall_avg_mshr_miss_latency::total 85744.320674                       # average overall mshr miss latency
system.cpu.dtb_walker_cache.tags.pwrStateResidencyTicks::UNDEFINED 2392659330500                       # Cumulative time (in ticks) in various power states
system.cpu.dtb_walker_cache.tags.replacements            0                       # number of replacements
system.cpu.dtb_walker_cache.tags.tagsinuse            0                       # Cycle average of tags in use
system.cpu.dtb_walker_cache.tags.total_refs            0                       # Total number of references to valid blocks.
system.cpu.dtb_walker_cache.tags.sampled_refs            0                       # Sample count of references to valid blocks.
system.cpu.dtb_walker_cache.tags.avg_refs          nan                       # Average number of references to valid blocks.
system.cpu.dtb_walker_cache.tags.warmup_cycle            0                       # Cycle when the warmup percentage was hit.
system.cpu.dtb_walker_cache.tags.tag_accesses            0                       # Number of tag accesses
system.cpu.dtb_walker_cache.tags.data_accesses            0                       # Number of data accesses
system.cpu.dtb_walker_cache.pwrStateResidencyTicks::UNDEFINED 2392659330500                       # Cumulative time (in ticks) in various power states
system.cpu.dtb_walker_cache.blocked_cycles::no_mshrs            0                       # number of cycles access was blocked
system.cpu.dtb_walker_cache.blocked_cycles::no_targets            0                       # number of cycles access was blocked
system.cpu.dtb_walker_cache.blocked::no_mshrs            0                       # number of cycles access was blocked
system.cpu.dtb_walker_cache.blocked::no_targets            0                       # number of cycles access was blocked
system.cpu.dtb_walker_cache.avg_blocked_cycles::no_mshrs          nan                       # average number of cycles each access was blocked
system.cpu.dtb_walker_cache.avg_blocked_cycles::no_targets          nan                       # average number of cycles each access was blocked
system.cpu.icache.tags.pwrStateResidencyTicks::UNDEFINED 2392659330500                       # Cumulative time (in ticks) in various power states
system.cpu.icache.tags.replacements           1139538                       # number of replacements
system.cpu.icache.tags.tagsinuse           870.981136                       # Cycle average of tags in use
system.cpu.icache.tags.total_refs           674213095                       # Total number of references to valid blocks.
system.cpu.icache.tags.sampled_refs           1140562                       # Sample count of references to valid blocks.
system.cpu.icache.tags.avg_refs            591.123582                       # Average number of references to valid blocks.
system.cpu.icache.tags.warmup_cycle      1565723401500                       # Cycle when the warmup percentage was hit.
system.cpu.icache.tags.occ_blocks::cpu.inst   870.981136                       # Average occupied blocks per requestor
system.cpu.icache.tags.occ_percent::cpu.inst     0.850568                       # Average percentage of cache occupancy
system.cpu.icache.tags.occ_percent::total     0.850568                       # Average percentage of cache occupancy
system.cpu.icache.tags.occ_task_id_blocks::1024         1024                       # Occupied blocks per task id
system.cpu.icache.tags.age_task_id_blocks_1024::0            9                       # Occupied blocks per task id
system.cpu.icache.tags.age_task_id_blocks_1024::1          142                       # Occupied blocks per task id
system.cpu.icache.tags.age_task_id_blocks_1024::2          175                       # Occupied blocks per task id
system.cpu.icache.tags.age_task_id_blocks_1024::3          101                       # Occupied blocks per task id
system.cpu.icache.tags.age_task_id_blocks_1024::4          597                       # Occupied blocks per task id
system.cpu.icache.tags.occ_task_id_percent::1024            1                       # Percentage of cache occupancy per task id
system.cpu.icache.tags.tag_accesses        2702555190                       # Number of tag accesses
system.cpu.icache.tags.data_accesses       2702555190                       # Number of data accesses
system.cpu.icache.pwrStateResidencyTicks::UNDEFINED 2392659330500                       # Cumulative time (in ticks) in various power states
system.cpu.icache.ReadReq_hits::cpu.inst    674213095                       # number of ReadReq hits
system.cpu.icache.ReadReq_hits::total       674213095                       # number of ReadReq hits
system.cpu.icache.demand_hits::cpu.inst     674213095                       # number of demand (read+write) hits
system.cpu.icache.demand_hits::total        674213095                       # number of demand (read+write) hits
system.cpu.icache.overall_hits::cpu.inst    674213095                       # number of overall hits
system.cpu.icache.overall_hits::total       674213095                       # number of overall hits
system.cpu.icache.ReadReq_misses::cpu.inst      1140562                       # number of ReadReq misses
system.cpu.icache.ReadReq_misses::total       1140562                       # number of ReadReq misses
system.cpu.icache.demand_misses::cpu.inst      1140562                       # number of demand (read+write) misses
system.cpu.icache.demand_misses::total        1140562                       # number of demand (read+write) misses
system.cpu.icache.overall_misses::cpu.inst      1140562                       # number of overall misses
system.cpu.icache.overall_misses::total       1140562                       # number of overall misses
system.cpu.icache.ReadReq_miss_latency::cpu.inst  15275983500                       # number of ReadReq miss cycles
system.cpu.icache.ReadReq_miss_latency::total  15275983500                       # number of ReadReq miss cycles
system.cpu.icache.demand_miss_latency::cpu.inst  15275983500                       # number of demand (read+write) miss cycles
system.cpu.icache.demand_miss_latency::total  15275983500                       # number of demand (read+write) miss cycles
system.cpu.icache.overall_miss_latency::cpu.inst  15275983500                       # number of overall miss cycles
system.cpu.icache.overall_miss_latency::total  15275983500                       # number of overall miss cycles
system.cpu.icache.ReadReq_accesses::cpu.inst    675353657                       # number of ReadReq accesses(hits+misses)
system.cpu.icache.ReadReq_accesses::total    675353657                       # number of ReadReq accesses(hits+misses)
system.cpu.icache.demand_accesses::cpu.inst    675353657                       # number of demand (read+write) accesses
system.cpu.icache.demand_accesses::total    675353657                       # number of demand (read+write) accesses
system.cpu.icache.overall_accesses::cpu.inst    675353657                       # number of overall (read+write) accesses
system.cpu.icache.overall_accesses::total    675353657                       # number of overall (read+write) accesses
system.cpu.icache.ReadReq_miss_rate::cpu.inst     0.001689                       # miss rate for ReadReq accesses
system.cpu.icache.ReadReq_miss_rate::total     0.001689                       # miss rate for ReadReq accesses
system.cpu.icache.demand_miss_rate::cpu.inst     0.001689                       # miss rate for demand accesses
system.cpu.icache.demand_miss_rate::total     0.001689                       # miss rate for demand accesses
system.cpu.icache.overall_miss_rate::cpu.inst     0.001689                       # miss rate for overall accesses
system.cpu.icache.overall_miss_rate::total     0.001689                       # miss rate for overall accesses
system.cpu.icache.ReadReq_avg_miss_latency::cpu.inst 13393.382824                       # average ReadReq miss latency
system.cpu.icache.ReadReq_avg_miss_latency::total 13393.382824                       # average ReadReq miss latency
system.cpu.icache.demand_avg_miss_latency::cpu.inst 13393.382824                       # average overall miss latency
system.cpu.icache.demand_avg_miss_latency::total 13393.382824                       # average overall miss latency
system.cpu.icache.overall_avg_miss_latency::cpu.inst 13393.382824                       # average overall miss latency
system.cpu.icache.overall_avg_miss_latency::total 13393.382824                       # average overall miss latency
system.cpu.icache.blocked_cycles::no_mshrs            0                       # number of cycles access was blocked
system.cpu.icache.blocked_cycles::no_targets            0                       # number of cycles access was blocked
system.cpu.icache.blocked::no_mshrs                 0                       # number of cycles access was blocked
system.cpu.icache.blocked::no_targets               0                       # number of cycles access was blocked
system.cpu.icache.avg_blocked_cycles::no_mshrs          nan                       # average number of cycles each access was blocked
system.cpu.icache.avg_blocked_cycles::no_targets          nan                       # average number of cycles each access was blocked
system.cpu.icache.writebacks::writebacks      1139538                       # number of writebacks
system.cpu.icache.writebacks::total           1139538                       # number of writebacks
system.cpu.icache.ReadReq_mshr_misses::cpu.inst      1140562                       # number of ReadReq MSHR misses
system.cpu.icache.ReadReq_mshr_misses::total      1140562                       # number of ReadReq MSHR misses
system.cpu.icache.demand_mshr_misses::cpu.inst      1140562                       # number of demand (read+write) MSHR misses
system.cpu.icache.demand_mshr_misses::total      1140562                       # number of demand (read+write) MSHR misses
system.cpu.icache.overall_mshr_misses::cpu.inst      1140562                       # number of overall MSHR misses
system.cpu.icache.overall_mshr_misses::total      1140562                       # number of overall MSHR misses
system.cpu.icache.ReadReq_mshr_miss_latency::cpu.inst  14135421500                       # number of ReadReq MSHR miss cycles
system.cpu.icache.ReadReq_mshr_miss_latency::total  14135421500                       # number of ReadReq MSHR miss cycles
system.cpu.icache.demand_mshr_miss_latency::cpu.inst  14135421500                       # number of demand (read+write) MSHR miss cycles
system.cpu.icache.demand_mshr_miss_latency::total  14135421500                       # number of demand (read+write) MSHR miss cycles
system.cpu.icache.overall_mshr_miss_latency::cpu.inst  14135421500                       # number of overall MSHR miss cycles
system.cpu.icache.overall_mshr_miss_latency::total  14135421500                       # number of overall MSHR miss cycles
system.cpu.icache.ReadReq_mshr_miss_rate::cpu.inst     0.001689                       # mshr miss rate for ReadReq accesses
system.cpu.icache.ReadReq_mshr_miss_rate::total     0.001689                       # mshr miss rate for ReadReq accesses
system.cpu.icache.demand_mshr_miss_rate::cpu.inst     0.001689                       # mshr miss rate for demand accesses
system.cpu.icache.demand_mshr_miss_rate::total     0.001689                       # mshr miss rate for demand accesses
system.cpu.icache.overall_mshr_miss_rate::cpu.inst     0.001689                       # mshr miss rate for overall accesses
system.cpu.icache.overall_mshr_miss_rate::total     0.001689                       # mshr miss rate for overall accesses
system.cpu.icache.ReadReq_avg_mshr_miss_latency::cpu.inst 12393.382824                       # average ReadReq mshr miss latency
system.cpu.icache.ReadReq_avg_mshr_miss_latency::total 12393.382824                       # average ReadReq mshr miss latency
system.cpu.icache.demand_avg_mshr_miss_latency::cpu.inst 12393.382824                       # average overall mshr miss latency
system.cpu.icache.demand_avg_mshr_miss_latency::total 12393.382824                       # average overall mshr miss latency
system.cpu.icache.overall_avg_mshr_miss_latency::cpu.inst 12393.382824                       # average overall mshr miss latency
system.cpu.icache.overall_avg_mshr_miss_latency::total 12393.382824                       # average overall mshr miss latency
system.cpu.itb_walker_cache.tags.pwrStateResidencyTicks::UNDEFINED 2392659330500                       # Cumulative time (in ticks) in various power states
system.cpu.itb_walker_cache.tags.replacements            0                       # number of replacements
system.cpu.itb_walker_cache.tags.tagsinuse            0                       # Cycle average of tags in use
system.cpu.itb_walker_cache.tags.total_refs            0                       # Total number of references to valid blocks.
system.cpu.itb_walker_cache.tags.sampled_refs            0                       # Sample count of references to valid blocks.
system.cpu.itb_walker_cache.tags.avg_refs          nan                       # Average number of references to valid blocks.
system.cpu.itb_walker_cache.tags.warmup_cycle            0                       # Cycle when the warmup percentage was hit.
system.cpu.itb_walker_cache.tags.tag_accesses            0                       # Number of tag accesses
system.cpu.itb_walker_cache.tags.data_accesses            0                       # Number of data accesses
system.cpu.itb_walker_cache.pwrStateResidencyTicks::UNDEFINED 2392659330500                       # Cumulative time (in ticks) in various power states
system.cpu.itb_walker_cache.blocked_cycles::no_mshrs            0                       # number of cycles access was blocked
system.cpu.itb_walker_cache.blocked_cycles::no_targets            0                       # number of cycles access was blocked
system.cpu.itb_walker_cache.blocked::no_mshrs            0                       # number of cycles access was blocked
system.cpu.itb_walker_cache.blocked::no_targets            0                       # number of cycles access was blocked
system.cpu.itb_walker_cache.avg_blocked_cycles::no_mshrs          nan                       # average number of cycles each access was blocked
system.cpu.itb_walker_cache.avg_blocked_cycles::no_targets          nan                       # average number of cycles each access was blocked
system.l2.tags.pwrStateResidencyTicks::UNDEFINED 2392659330500                       # Cumulative time (in ticks) in various power states
system.l2.tags.replacements                  16647263                       # number of replacements
system.l2.tags.tagsinuse                 32655.908217                       # Cycle average of tags in use
system.l2.tags.total_refs                    18984206                       # Total number of references to valid blocks.
system.l2.tags.sampled_refs                  16680031                       # Sample count of references to valid blocks.
system.l2.tags.avg_refs                      1.138140                       # Average number of references to valid blocks.
system.l2.tags.warmup_cycle               11058015000                       # Cycle when the warmup percentage was hit.
system.l2.tags.occ_blocks::writebacks      525.263144                       # Average occupied blocks per requestor
system.l2.tags.occ_blocks::cpu.inst        418.427972                       # Average occupied blocks per requestor
system.l2.tags.occ_blocks::cpu.data      31712.217101                       # Average occupied blocks per requestor
system.l2.tags.occ_percent::writebacks       0.016030                       # Average percentage of cache occupancy
system.l2.tags.occ_percent::cpu.inst         0.012769                       # Average percentage of cache occupancy
system.l2.tags.occ_percent::cpu.data         0.967780                       # Average percentage of cache occupancy
system.l2.tags.occ_percent::total            0.996579                       # Average percentage of cache occupancy
system.l2.tags.occ_task_id_blocks::1024         32768                       # Occupied blocks per task id
system.l2.tags.age_task_id_blocks_1024::1            7                       # Occupied blocks per task id
system.l2.tags.age_task_id_blocks_1024::2           97                       # Occupied blocks per task id
system.l2.tags.age_task_id_blocks_1024::3          971                       # Occupied blocks per task id
system.l2.tags.age_task_id_blocks_1024::4        31693                       # Occupied blocks per task id
system.l2.tags.occ_task_id_percent::1024            1                       # Percentage of cache occupancy per task id
system.l2.tags.tag_accesses                  88011791                       # Number of tag accesses
system.l2.tags.data_accesses                 88011791                       # Number of data accesses
system.l2.pwrStateResidencyTicks::UNDEFINED 2392659330500                       # Cumulative time (in ticks) in various power states
system.l2.WritebackDirty_hits::writebacks     16669992                       # number of WritebackDirty hits
system.l2.WritebackDirty_hits::total         16669992                       # number of WritebackDirty hits
system.l2.WritebackClean_hits::writebacks      1139538                       # number of WritebackClean hits
system.l2.WritebackClean_hits::total          1139538                       # number of WritebackClean hits
system.l2.ReadExReq_hits::cpu.data               9976                       # number of ReadExReq hits
system.l2.ReadExReq_hits::total                  9976                       # number of ReadExReq hits
system.l2.ReadCleanReq_hits::cpu.inst         1136705                       # number of ReadCleanReq hits
system.l2.ReadCleanReq_hits::total            1136705                       # number of ReadCleanReq hits
system.l2.ReadSharedReq_hits::cpu.data          16900                       # number of ReadSharedReq hits
system.l2.ReadSharedReq_hits::total             16900                       # number of ReadSharedReq hits
system.l2.demand_hits::cpu.inst               1136705                       # number of demand (read+write) hits
system.l2.demand_hits::cpu.data                 26876                       # number of demand (read+write) hits
system.l2.demand_hits::total                  1163581                       # number of demand (read+write) hits
system.l2.overall_hits::cpu.inst              1136705                       # number of overall hits
system.l2.overall_hits::cpu.data                26876                       # number of overall hits
system.l2.overall_hits::total                 1163581                       # number of overall hits
system.l2.ReadExReq_misses::cpu.data         16587979                       # number of ReadExReq misses
system.l2.ReadExReq_misses::total            16587979                       # number of ReadExReq misses
system.l2.ReadCleanReq_misses::cpu.inst          3857                       # number of ReadCleanReq misses
system.l2.ReadCleanReq_misses::total             3857                       # number of ReadCleanReq misses
system.l2.ReadSharedReq_misses::cpu.data        80083                       # number of ReadSharedReq misses
system.l2.ReadSharedReq_misses::total           80083                       # number of ReadSharedReq misses
system.l2.demand_misses::cpu.inst                3857                       # number of demand (read+write) misses
system.l2.demand_misses::cpu.data            16668062                       # number of demand (read+write) misses
system.l2.demand_misses::total               16671919                       # number of demand (read+write) misses
system.l2.overall_misses::cpu.inst               3857                       # number of overall misses
system.l2.overall_misses::cpu.data           16668062                       # number of overall misses
system.l2.overall_misses::total              16671919                       # number of overall misses
system.l2.ReadExReq_miss_latency::cpu.data 1381197680500                       # number of ReadExReq miss cycles
system.l2.ReadExReq_miss_latency::total  1381197680500                       # number of ReadExReq miss cycles
system.l2.ReadCleanReq_miss_latency::cpu.inst    489176000                       # number of ReadCleanReq miss cycles
system.l2.ReadCleanReq_miss_latency::total    489176000                       # number of ReadCleanReq miss cycles
system.l2.ReadSharedReq_miss_latency::cpu.data  24973831500                       # number of ReadSharedReq miss cycles
system.l2.ReadSharedReq_miss_latency::total  24973831500                       # number of ReadSharedReq miss cycles
system.l2.demand_miss_latency::cpu.inst     489176000                       # number of demand (read+write) miss cycles
system.l2.demand_miss_latency::cpu.data  1406171512000                       # number of demand (read+write) miss cycles
system.l2.demand_miss_latency::total     1406660688000                       # number of demand (read+write) miss cycles
system.l2.overall_miss_latency::cpu.inst    489176000                       # number of overall miss cycles
system.l2.overall_miss_latency::cpu.data 1406171512000                       # number of overall miss cycles
system.l2.overall_miss_latency::total    1406660688000                       # number of overall miss cycles
system.l2.WritebackDirty_accesses::writebacks     16669992                       # number of WritebackDirty accesses(hits+misses)
system.l2.WritebackDirty_accesses::total     16669992                       # number of WritebackDirty accesses(hits+misses)
system.l2.WritebackClean_accesses::writebacks      1139538                       # number of WritebackClean accesses(hits+misses)
system.l2.WritebackClean_accesses::total      1139538                       # number of WritebackClean accesses(hits+misses)
system.l2.ReadExReq_accesses::cpu.data       16597955                       # number of ReadExReq accesses(hits+misses)
system.l2.ReadExReq_accesses::total          16597955                       # number of ReadExReq accesses(hits+misses)
system.l2.ReadCleanReq_accesses::cpu.inst      1140562                       # number of ReadCleanReq accesses(hits+misses)
system.l2.ReadCleanReq_accesses::total        1140562                       # number of ReadCleanReq accesses(hits+misses)
system.l2.ReadSharedReq_accesses::cpu.data        96983                       # number of ReadSharedReq accesses(hits+misses)
system.l2.ReadSharedReq_accesses::total         96983                       # number of ReadSharedReq accesses(hits+misses)
system.l2.demand_accesses::cpu.inst           1140562                       # number of demand (read+write) accesses
system.l2.demand_accesses::cpu.data          16694938                       # number of demand (read+write) accesses
system.l2.demand_accesses::total             17835500                       # number of demand (read+write) accesses
system.l2.overall_accesses::cpu.inst          1140562                       # number of overall (read+write) accesses
system.l2.overall_accesses::cpu.data         16694938                       # number of overall (read+write) accesses
system.l2.overall_accesses::total            17835500                       # number of overall (read+write) accesses
system.l2.ReadExReq_miss_rate::cpu.data      0.999399                       # miss rate for ReadExReq accesses
system.l2.ReadExReq_miss_rate::total         0.999399                       # miss rate for ReadExReq accesses
system.l2.ReadCleanReq_miss_rate::cpu.inst     0.003382                       # miss rate for ReadCleanReq accesses
system.l2.ReadCleanReq_miss_rate::total      0.003382                       # miss rate for ReadCleanReq accesses
system.l2.ReadSharedReq_miss_rate::cpu.data     0.825743                       # miss rate for ReadSharedReq accesses
system.l2.ReadSharedReq_miss_rate::total     0.825743                       # miss rate for ReadSharedReq accesses
system.l2.demand_miss_rate::cpu.inst         0.003382                       # miss rate for demand accesses
system.l2.demand_miss_rate::cpu.data         0.998390                       # miss rate for demand accesses
system.l2.demand_miss_rate::total            0.934760                       # miss rate for demand accesses
system.l2.overall_miss_rate::cpu.inst        0.003382                       # miss rate for overall accesses
system.l2.overall_miss_rate::cpu.data        0.998390                       # miss rate for overall accesses
system.l2.overall_miss_rate::total           0.934760                       # miss rate for overall accesses
system.l2.ReadExReq_avg_miss_latency::cpu.data 83264.976433                       # average ReadExReq miss latency
system.l2.ReadExReq_avg_miss_latency::total 83264.976433                       # average ReadExReq miss latency
system.l2.ReadCleanReq_avg_miss_latency::cpu.inst 126828.104745                       # average ReadCleanReq miss latency
system.l2.ReadCleanReq_avg_miss_latency::total 126828.104745                       # average ReadCleanReq miss latency
system.l2.ReadSharedReq_avg_miss_latency::cpu.data 311849.350049                       # average ReadSharedReq miss latency
system.l2.ReadSharedReq_avg_miss_latency::total 311849.350049                       # average ReadSharedReq miss latency
system.l2.demand_avg_miss_latency::cpu.inst 126828.104745                       # average overall miss latency
system.l2.demand_avg_miss_latency::cpu.data 84363.227831                       # average overall miss latency
system.l2.demand_avg_miss_latency::total 84373.051956                       # average overall miss latency
system.l2.overall_avg_miss_latency::cpu.inst 126828.104745                       # average overall miss latency
system.l2.overall_avg_miss_latency::cpu.data 84363.227831                       # average overall miss latency
system.l2.overall_avg_miss_latency::total 84373.051956                       # average overall miss latency
system.l2.blocked_cycles::no_mshrs                  0                       # number of cycles access was blocked
system.l2.blocked_cycles::no_targets                0                       # number of cycles access was blocked
system.l2.blocked::no_mshrs                         0                       # number of cycles access was blocked
system.l2.blocked::no_targets                       0                       # number of cycles access was blocked
system.l2.avg_blocked_cycles::no_mshrs            nan                       # average number of cycles each access was blocked
system.l2.avg_blocked_cycles::no_targets          nan                       # average number of cycles each access was blocked
system.l2.writebacks::writebacks             16625409                       # number of writebacks
system.l2.writebacks::total                  16625409                       # number of writebacks
system.l2.CleanEvict_mshr_misses::writebacks         1643                       # number of CleanEvict MSHR misses
system.l2.CleanEvict_mshr_misses::total          1643                       # number of CleanEvict MSHR misses
system.l2.ReadExReq_mshr_misses::cpu.data     16587979                       # number of ReadExReq MSHR misses
system.l2.ReadExReq_mshr_misses::total       16587979                       # number of ReadExReq MSHR misses
system.l2.ReadCleanReq_mshr_misses::cpu.inst         3857                       # number of ReadCleanReq MSHR misses
system.l2.ReadCleanReq_mshr_misses::total         3857                       # number of ReadCleanReq MSHR misses
system.l2.ReadSharedReq_mshr_misses::cpu.data        80083                       # number of ReadSharedReq MSHR misses
system.l2.ReadSharedReq_mshr_misses::total        80083                       # number of ReadSharedReq MSHR misses
system.l2.demand_mshr_misses::cpu.inst           3857                       # number of demand (read+write) MSHR misses
system.l2.demand_mshr_misses::cpu.data       16668062                       # number of demand (read+write) MSHR misses
system.l2.demand_mshr_misses::total          16671919                       # number of demand (read+write) MSHR misses
system.l2.overall_mshr_misses::cpu.inst          3857                       # number of overall MSHR misses
system.l2.overall_mshr_misses::cpu.data      16668062                       # number of overall MSHR misses
system.l2.overall_mshr_misses::total         16671919                       # number of overall MSHR misses
system.l2.ReadExReq_mshr_miss_latency::cpu.data 1215317890500                       # number of ReadExReq MSHR miss cycles
system.l2.ReadExReq_mshr_miss_latency::total 1215317890500                       # number of ReadExReq MSHR miss cycles
system.l2.ReadCleanReq_mshr_miss_latency::cpu.inst    450606000                       # number of ReadCleanReq MSHR miss cycles
system.l2.ReadCleanReq_mshr_miss_latency::total    450606000                       # number of ReadCleanReq MSHR miss cycles
system.l2.ReadSharedReq_mshr_miss_latency::cpu.data  24173001500                       # number of ReadSharedReq MSHR miss cycles
system.l2.ReadSharedReq_mshr_miss_latency::total  24173001500                       # number of ReadSharedReq MSHR miss cycles
system.l2.demand_mshr_miss_latency::cpu.inst    450606000                       # number of demand (read+write) MSHR miss cycles
system.l2.demand_mshr_miss_latency::cpu.data 1239490892000                       # number of demand (read+write) MSHR miss cycles
system.l2.demand_mshr_miss_latency::total 1239941498000                       # number of demand (read+write) MSHR miss cycles
system.l2.overall_mshr_miss_latency::cpu.inst    450606000                       # number of overall MSHR miss cycles
system.l2.overall_mshr_miss_latency::cpu.data 1239490892000                       # number of overall MSHR miss cycles
system.l2.overall_mshr_miss_latency::total 1239941498000                       # number of overall MSHR miss cycles
system.l2.CleanEvict_mshr_miss_rate::writebacks          inf                       # mshr miss rate for CleanEvict accesses
system.l2.CleanEvict_mshr_miss_rate::total          inf                       # mshr miss rate for CleanEvict accesses
system.l2.ReadExReq_mshr_miss_rate::cpu.data     0.999399                       # mshr miss rate for ReadExReq accesses
system.l2.ReadExReq_mshr_miss_rate::total     0.999399                       # mshr miss rate for ReadExReq accesses
system.l2.ReadCleanReq_mshr_miss_rate::cpu.inst     0.003382                       # mshr miss rate for ReadCleanReq accesses
system.l2.ReadCleanReq_mshr_miss_rate::total     0.003382                       # mshr miss rate for ReadCleanReq accesses
system.l2.ReadSharedReq_mshr_miss_rate::cpu.data     0.825743                       # mshr miss rate for ReadSharedReq accesses
system.l2.ReadSharedReq_mshr_miss_rate::total     0.825743                       # mshr miss rate for ReadSharedReq accesses
system.l2.demand_mshr_miss_rate::cpu.inst     0.003382                       # mshr miss rate for demand accesses
system.l2.demand_mshr_miss_rate::cpu.data     0.998390                       # mshr miss rate for demand accesses
system.l2.demand_mshr_miss_rate::total       0.934760                       # mshr miss rate for demand accesses
system.l2.overall_mshr_miss_rate::cpu.inst     0.003382                       # mshr miss rate for overall accesses
system.l2.overall_mshr_miss_rate::cpu.data     0.998390                       # mshr miss rate for overall accesses
system.l2.overall_mshr_miss_rate::total      0.934760                       # mshr miss rate for overall accesses
system.l2.ReadExReq_avg_mshr_miss_latency::cpu.data 73264.976433                       # average ReadExReq mshr miss latency
system.l2.ReadExReq_avg_mshr_miss_latency::total 73264.976433                       # average ReadExReq mshr miss latency
system.l2.ReadCleanReq_avg_mshr_miss_latency::cpu.inst 116828.104745                       # average ReadCleanReq mshr miss latency
system.l2.ReadCleanReq_avg_mshr_miss_latency::total 116828.104745                       # average ReadCleanReq mshr miss latency
system.l2.ReadSharedReq_avg_mshr_miss_latency::cpu.data 301849.350049                       # average ReadSharedReq mshr miss latency
system.l2.ReadSharedReq_avg_mshr_miss_latency::total 301849.350049                       # average ReadSharedReq mshr miss latency
system.l2.demand_avg_mshr_miss_latency::cpu.inst 116828.104745                       # average overall mshr miss latency
system.l2.demand_avg_mshr_miss_latency::cpu.data 74363.227831                       # average overall mshr miss latency
system.l2.demand_avg_mshr_miss_latency::total 74373.051956                       # average overall mshr miss latency
system.l2.overall_avg_mshr_miss_latency::cpu.inst 116828.104745                       # average overall mshr miss latency
system.l2.overall_avg_mshr_miss_latency::cpu.data 74363.227831                       # average overall mshr miss latency
system.l2.overall_avg_mshr_miss_latency::total 74373.051956                       # average overall mshr miss latency
system.membus.snoop_filter.tot_requests      33310356                       # Total number of requests made to the snoop filter.
system.membus.snoop_filter.hit_single_requests     16638437                       # Number of requests hitting in the snoop filter with a single holder of the requested data.
system.membus.snoop_filter.hit_multi_requests            0                       # Number of requests hitting in the snoop filter with multiple (>1) holders of the requested data.
system.membus.snoop_filter.tot_snoops               0                       # Total number of snoops made to the snoop filter.
system.membus.snoop_filter.hit_single_snoops            0                       # Number of snoops hitting in the snoop filter with a single holder of the requested data.
system.membus.snoop_filter.hit_multi_snoops            0                       # Number of snoops hitting in the snoop filter with multiple (>1) holders of the requested data.
system.membus.pwrStateResidencyTicks::UNDEFINED 2392659330500                       # Cumulative time (in ticks) in various power states
system.membus.trans_dist::ReadResp              83940                       # Transaction distribution
system.membus.trans_dist::WritebackDirty     16625409                       # Transaction distribution
system.membus.trans_dist::CleanEvict            13028                       # Transaction distribution
system.membus.trans_dist::ReadExReq          16587979                       # Transaction distribution
system.membus.trans_dist::ReadExResp         16587979                       # Transaction distribution
system.membus.trans_dist::ReadSharedReq         83940                       # Transaction distribution
system.membus.pkt_count_system.l2.mem_side::system.mem_ctrls.port     49982275                       # Packet count per connected master and slave (bytes)
system.membus.pkt_count_system.l2.mem_side::total     49982275                       # Packet count per connected master and slave (bytes)
system.membus.pkt_count::total               49982275                       # Packet count per connected master and slave (bytes)
system.membus.pkt_size_system.l2.mem_side::system.mem_ctrls.port   1065514496                       # Cumulative packet size per connected master and slave (bytes)
system.membus.pkt_size_system.l2.mem_side::total   1065514496                       # Cumulative packet size per connected master and slave (bytes)
system.membus.pkt_size::total              1065514496                       # Cumulative packet size per connected master and slave (bytes)
system.membus.snoops                                0                       # Total snoops (count)
system.membus.snoopTraffic                          0                       # Total snoop traffic (bytes)
system.membus.snoop_fanout::samples          16671919                       # Request fanout histogram
system.membus.snoop_fanout::mean                    0                       # Request fanout histogram
system.membus.snoop_fanout::stdev                   0                       # Request fanout histogram
system.membus.snoop_fanout::underflows              0      0.00%      0.00% # Request fanout histogram
system.membus.snoop_fanout::0                16671919    100.00%    100.00% # Request fanout histogram
system.membus.snoop_fanout::1                       0      0.00%    100.00% # Request fanout histogram
system.membus.snoop_fanout::overflows               0      0.00%    100.00% # Request fanout histogram
system.membus.snoop_fanout::min_value               0                       # Request fanout histogram
system.membus.snoop_fanout::max_value               0                       # Request fanout histogram
system.membus.snoop_fanout::total            16671919                       # Request fanout histogram
system.membus.reqLayer2.occupancy         66561198000                       # Layer occupancy (ticks)
system.membus.reqLayer2.utilization               2.8                       # Layer utilization (%)
system.membus.respLayer1.occupancy        54447832500                       # Layer occupancy (ticks)
system.membus.respLayer1.utilization              2.3                       # Layer utilization (%)
system.tol2bus.snoop_filter.tot_requests     35665880                       # Total number of requests made to the snoop filter.
system.tol2bus.snoop_filter.hit_single_requests     17830380                       # Number of requests hitting in the snoop filter with a single holder of the requested data.
system.tol2bus.snoop_filter.hit_multi_requests            0                       # Number of requests hitting in the snoop filter with multiple (>1) holders of the requested data.
system.tol2bus.snoop_filter.tot_snoops          10469                       # Total number of snoops made to the snoop filter.
system.tol2bus.snoop_filter.hit_single_snoops        10469                       # Number of snoops hitting in the snoop filter with a single holder of the requested data.
system.tol2bus.snoop_filter.hit_multi_snoops            0                       # Number of snoops hitting in the snoop filter with multiple (>1) holders of the requested data.
system.tol2bus.pwrStateResidencyTicks::UNDEFINED 2392659330500                       # Cumulative time (in ticks) in various power states
system.tol2bus.trans_dist::ReadResp           1237545                       # Transaction distribution
system.tol2bus.trans_dist::WritebackDirty     33295401                       # Transaction distribution
system.tol2bus.trans_dist::WritebackClean      1139538                       # Transaction distribution
system.tol2bus.trans_dist::CleanEvict           42704                       # Transaction distribution
system.tol2bus.trans_dist::ReadExReq         16597955                       # Transaction distribution
system.tol2bus.trans_dist::ReadExResp        16597955                       # Transaction distribution
system.tol2bus.trans_dist::ReadCleanReq       1140562                       # Transaction distribution
system.tol2bus.trans_dist::ReadSharedReq        96983                       # Transaction distribution
system.tol2bus.pkt_count_system.cpu.icache.mem_side::system.l2.cpu_side      3420662                       # Packet count per connected master and slave (bytes)
system.tol2bus.pkt_count_system.cpu.dcache.mem_side::system.l2.cpu_side     50080718                       # Packet count per connected master and slave (bytes)
system.tol2bus.pkt_count::total              53501380                       # Packet count per connected master and slave (bytes)
system.tol2bus.pkt_size_system.cpu.icache.mem_side::system.l2.cpu_side     72963200                       # Cumulative packet size per connected master and slave (bytes)
system.tol2bus.pkt_size_system.cpu.dcache.mem_side::system.l2.cpu_side   1067677760                       # Cumulative packet size per connected master and slave (bytes)
system.tol2bus.pkt_size::total             1140640960                       # Cumulative packet size per connected master and slave (bytes)
system.tol2bus.snoops                        16647263                       # Total snoops (count)
system.tol2bus.snoopTraffic                 532013088                       # Total snoop traffic (bytes)
system.tol2bus.snoop_fanout::samples         34482763                       # Request fanout histogram
system.tol2bus.snoop_fanout::mean            0.000304                       # Request fanout histogram
system.tol2bus.snoop_fanout::stdev           0.017422                       # Request fanout histogram
system.tol2bus.snoop_fanout::underflows             0      0.00%      0.00% # Request fanout histogram
system.tol2bus.snoop_fanout::0               34472294     99.97%     99.97% # Request fanout histogram
system.tol2bus.snoop_fanout::1                  10469      0.03%    100.00% # Request fanout histogram
system.tol2bus.snoop_fanout::2                      0      0.00%    100.00% # Request fanout histogram
system.tol2bus.snoop_fanout::3                      0      0.00%    100.00% # Request fanout histogram
system.tol2bus.snoop_fanout::4                      0      0.00%    100.00% # Request fanout histogram
system.tol2bus.snoop_fanout::overflows              0      0.00%    100.00% # Request fanout histogram
system.tol2bus.snoop_fanout::min_value              0                       # Request fanout histogram
system.tol2bus.snoop_fanout::max_value              1                       # Request fanout histogram
system.tol2bus.snoop_fanout::total           34482763                       # Request fanout histogram
system.tol2bus.reqLayer0.occupancy        26737705000                       # Layer occupancy (ticks)
system.tol2bus.reqLayer0.utilization              1.1                       # Layer utilization (%)
system.tol2bus.respLayer0.occupancy        1140562000                       # Layer occupancy (ticks)
system.tol2bus.respLayer0.utilization             0.0                       # Layer utilization (%)
system.tol2bus.respLayer1.occupancy       16694938000                       # Layer occupancy (ticks)
system.tol2bus.respLayer1.utilization             0.7                       # Layer utilization (%)

---------- End Simulation Statistics   ----------
