
---------- Begin Simulation Statistics ----------
sim_seconds                                  2.129833                       # Number of seconds simulated
sim_ticks                                2129833217500                       # Number of ticks simulated
final_tick                               2129833217500                       # Number of ticks from beginning of simulation (restored from checkpoints and never reset)
sim_freq                                 1000000000000                       # Frequency of simulated ticks
host_inst_rate                                 527505                       # Simulator instruction rate (inst/s)
host_op_rate                                   684663                       # Simulator op (including micro ops) rate (op/s)
host_tick_rate                             2246994819                       # Simulator tick rate (ticks/s)
host_mem_usage                                 664700                       # Number of bytes of host memory used
host_seconds                                   947.86                       # Real time elapsed on the host
sim_insts                                   500000000                       # Number of instructions simulated
sim_ops                                     648963383                       # Number of ops (including micro ops) simulated
system.voltage_domain.voltage                       1                       # Voltage in Volts
system.clk_domain.clock                          1000                       # Clock period in ticks
system.mem_ctrls.pwrStateResidencyTicks::UNDEFINED 2129833217500                       # Cumulative time (in ticks) in various power states
system.mem_ctrls.bytes_read::cpu.inst           27808                       # Number of bytes read from this memory
system.mem_ctrls.bytes_read::cpu.data       443282976                       # Number of bytes read from this memory
system.mem_ctrls.bytes_read::total          443310784                       # Number of bytes read from this memory
system.mem_ctrls.bytes_inst_read::cpu.inst        27808                       # Number of instructions bytes read from this memory
system.mem_ctrls.bytes_inst_read::total         27808                       # Number of instructions bytes read from this memory
system.mem_ctrls.bytes_written::writebacks    442063136                       # Number of bytes written to this memory
system.mem_ctrls.bytes_written::total       442063136                       # Number of bytes written to this memory
system.mem_ctrls.num_reads::cpu.inst              869                       # Number of read requests responded to by this memory
system.mem_ctrls.num_reads::cpu.data         13852593                       # Number of read requests responded to by this memory
system.mem_ctrls.num_reads::total            13853462                       # Number of read requests responded to by this memory
system.mem_ctrls.num_writes::writebacks      13814473                       # Number of write requests responded to by this memory
system.mem_ctrls.num_writes::total           13814473                       # Number of write requests responded to by this memory
system.mem_ctrls.bw_read::cpu.inst              13056                       # Total read bandwidth from this memory (bytes/s)
system.mem_ctrls.bw_read::cpu.data          208130370                       # Total read bandwidth from this memory (bytes/s)
system.mem_ctrls.bw_read::total             208143427                       # Total read bandwidth from this memory (bytes/s)
system.mem_ctrls.bw_inst_read::cpu.inst         13056                       # Instruction read bandwidth from this memory (bytes/s)
system.mem_ctrls.bw_inst_read::total            13056                       # Instruction read bandwidth from this memory (bytes/s)
system.mem_ctrls.bw_write::writebacks       207557631                       # Write bandwidth from this memory (bytes/s)
system.mem_ctrls.bw_write::total            207557631                       # Write bandwidth from this memory (bytes/s)
system.mem_ctrls.bw_total::writebacks       207557631                       # Total bandwidth to/from this memory (bytes/s)
system.mem_ctrls.bw_total::cpu.inst             13056                       # Total bandwidth to/from this memory (bytes/s)
system.mem_ctrls.bw_total::cpu.data         208130370                       # Total bandwidth to/from this memory (bytes/s)
system.mem_ctrls.bw_total::total            415701057                       # Total bandwidth to/from this memory (bytes/s)
system.mem_ctrls.readReqs                    13853462                       # Number of read requests accepted
system.mem_ctrls.writeReqs                   13814473                       # Number of write requests accepted
system.mem_ctrls.readBursts                  13853462                       # Number of DRAM read bursts, including those serviced by the write queue
system.mem_ctrls.writeBursts                 13814473                       # Number of DRAM write bursts, including those merged in the write queue
system.mem_ctrls.bytesReadDRAM              886621568                       # Total number of bytes read from DRAM
system.mem_ctrls.bytesReadWrQ                       0                       # Total number of bytes read from write queue
system.mem_ctrls.bytesWritten               456398336                       # Total number of bytes written to DRAM
system.mem_ctrls.bytesReadSys               443310784                       # Total read bytes from the system interface side
system.mem_ctrls.bytesWrittenSys            442063136                       # Total written bytes from the system interface side
system.mem_ctrls.servicedByWrQ                      0                       # Number of DRAM read bursts serviced by the write queue
system.mem_ctrls.mergedWrBursts               6683224                       # Number of DRAM write bursts merged with an existing one
system.mem_ctrls.neitherReadNorWriteReqs            0                       # Number of requests that are neither read nor write
system.mem_ctrls.perBankRdBursts::0            865837                       # Per bank write bursts
system.mem_ctrls.perBankRdBursts::1            865598                       # Per bank write bursts
system.mem_ctrls.perBankRdBursts::2            865764                       # Per bank write bursts
system.mem_ctrls.perBankRdBursts::3            865563                       # Per bank write bursts
system.mem_ctrls.perBankRdBursts::4            865591                       # Per bank write bursts
system.mem_ctrls.perBankRdBursts::5            865580                       # Per bank write bursts
system.mem_ctrls.perBankRdBursts::6            870428                       # Per bank write bursts
system.mem_ctrls.perBankRdBursts::7            865362                       # Per bank write bursts
system.mem_ctrls.perBankRdBursts::8            865271                       # Per bank write bursts
system.mem_ctrls.perBankRdBursts::9            865440                       # Per bank write bursts
system.mem_ctrls.perBankRdBursts::10           865361                       # Per bank write bursts
system.mem_ctrls.perBankRdBursts::11           865476                       # Per bank write bursts
system.mem_ctrls.perBankRdBursts::12           865582                       # Per bank write bursts
system.mem_ctrls.perBankRdBursts::13           865405                       # Per bank write bursts
system.mem_ctrls.perBankRdBursts::14           865685                       # Per bank write bursts
system.mem_ctrls.perBankRdBursts::15           865519                       # Per bank write bursts
system.mem_ctrls.perBankWrBursts::0            446166                       # Per bank write bursts
system.mem_ctrls.perBankWrBursts::1            445684                       # Per bank write bursts
system.mem_ctrls.perBankWrBursts::2            445808                       # Per bank write bursts
system.mem_ctrls.perBankWrBursts::3            445680                       # Per bank write bursts
system.mem_ctrls.perBankWrBursts::4            445709                       # Per bank write bursts
system.mem_ctrls.perBankWrBursts::5            445749                       # Per bank write bursts
system.mem_ctrls.perBankWrBursts::6            445452                       # Per bank write bursts
system.mem_ctrls.perBankWrBursts::7            445576                       # Per bank write bursts
system.mem_ctrls.perBankWrBursts::8            445850                       # Per bank write bursts
system.mem_ctrls.perBankWrBursts::9            445634                       # Per bank write bursts
system.mem_ctrls.perBankWrBursts::10           445565                       # Per bank write bursts
system.mem_ctrls.perBankWrBursts::11           445657                       # Per bank write bursts
system.mem_ctrls.perBankWrBursts::12           445639                       # Per bank write bursts
system.mem_ctrls.perBankWrBursts::13           445594                       # Per bank write bursts
system.mem_ctrls.perBankWrBursts::14           445821                       # Per bank write bursts
system.mem_ctrls.perBankWrBursts::15           445640                       # Per bank write bursts
system.mem_ctrls.numRdRetry                         0                       # Number of times read queue was full causing retry
system.mem_ctrls.numWrRetry                         0                       # Number of times write queue was full causing retry
system.mem_ctrls.totGap                  2128970848500                       # Total gap between requests
system.mem_ctrls.readPktSize::0                     0                       # Read request sizes (log2)
system.mem_ctrls.readPktSize::1                     0                       # Read request sizes (log2)
system.mem_ctrls.readPktSize::2                     0                       # Read request sizes (log2)
system.mem_ctrls.readPktSize::3                     0                       # Read request sizes (log2)
system.mem_ctrls.readPktSize::4                     0                       # Read request sizes (log2)
system.mem_ctrls.readPktSize::5              13853462                       # Read request sizes (log2)
system.mem_ctrls.readPktSize::6                     0                       # Read request sizes (log2)
system.mem_ctrls.writePktSize::0                    0                       # Write request sizes (log2)
system.mem_ctrls.writePktSize::1                    0                       # Write request sizes (log2)
system.mem_ctrls.writePktSize::2                    0                       # Write request sizes (log2)
system.mem_ctrls.writePktSize::3                    0                       # Write request sizes (log2)
system.mem_ctrls.writePktSize::4                    0                       # Write request sizes (log2)
system.mem_ctrls.writePktSize::5             13814473                       # Write request sizes (log2)
system.mem_ctrls.writePktSize::6                    0                       # Write request sizes (log2)
system.mem_ctrls.rdQLenPdf::0                13853462                       # What read queue length does an incoming req see
system.mem_ctrls.rdQLenPdf::1                       0                       # What read queue length does an incoming req see
system.mem_ctrls.rdQLenPdf::2                       0                       # What read queue length does an incoming req see
system.mem_ctrls.rdQLenPdf::3                       0                       # What read queue length does an incoming req see
system.mem_ctrls.rdQLenPdf::4                       0                       # What read queue length does an incoming req see
system.mem_ctrls.rdQLenPdf::5                       0                       # What read queue length does an incoming req see
system.mem_ctrls.rdQLenPdf::6                       0                       # What read queue length does an incoming req see
system.mem_ctrls.rdQLenPdf::7                       0                       # What read queue length does an incoming req see
system.mem_ctrls.rdQLenPdf::8                       0                       # What read queue length does an incoming req see
system.mem_ctrls.rdQLenPdf::9                       0                       # What read queue length does an incoming req see
system.mem_ctrls.rdQLenPdf::10                      0                       # What read queue length does an incoming req see
system.mem_ctrls.rdQLenPdf::11                      0                       # What read queue length does an incoming req see
system.mem_ctrls.rdQLenPdf::12                      0                       # What read queue length does an incoming req see
system.mem_ctrls.rdQLenPdf::13                      0                       # What read queue length does an incoming req see
system.mem_ctrls.rdQLenPdf::14                      0                       # What read queue length does an incoming req see
system.mem_ctrls.rdQLenPdf::15                      0                       # What read queue length does an incoming req see
system.mem_ctrls.rdQLenPdf::16                      0                       # What read queue length does an incoming req see
system.mem_ctrls.rdQLenPdf::17                      0                       # What read queue length does an incoming req see
system.mem_ctrls.rdQLenPdf::18                      0                       # What read queue length does an incoming req see
system.mem_ctrls.rdQLenPdf::19                      0                       # What read queue length does an incoming req see
system.mem_ctrls.rdQLenPdf::20                      0                       # What read queue length does an incoming req see
system.mem_ctrls.rdQLenPdf::21                      0                       # What read queue length does an incoming req see
system.mem_ctrls.rdQLenPdf::22                      0                       # What read queue length does an incoming req see
system.mem_ctrls.rdQLenPdf::23                      0                       # What read queue length does an incoming req see
system.mem_ctrls.rdQLenPdf::24                      0                       # What read queue length does an incoming req see
system.mem_ctrls.rdQLenPdf::25                      0                       # What read queue length does an incoming req see
system.mem_ctrls.rdQLenPdf::26                      0                       # What read queue length does an incoming req see
system.mem_ctrls.rdQLenPdf::27                      0                       # What read queue length does an incoming req see
system.mem_ctrls.rdQLenPdf::28                      0                       # What read queue length does an incoming req see
system.mem_ctrls.rdQLenPdf::29                      0                       # What read queue length does an incoming req see
system.mem_ctrls.rdQLenPdf::30                      0                       # What read queue length does an incoming req see
system.mem_ctrls.rdQLenPdf::31                      0                       # What read queue length does an incoming req see
system.mem_ctrls.wrQLenPdf::0                       1                       # What write queue length does an incoming req see
system.mem_ctrls.wrQLenPdf::1                       1                       # What write queue length does an incoming req see
system.mem_ctrls.wrQLenPdf::2                       1                       # What write queue length does an incoming req see
system.mem_ctrls.wrQLenPdf::3                       1                       # What write queue length does an incoming req see
system.mem_ctrls.wrQLenPdf::4                       1                       # What write queue length does an incoming req see
system.mem_ctrls.wrQLenPdf::5                       1                       # What write queue length does an incoming req see
system.mem_ctrls.wrQLenPdf::6                       1                       # What write queue length does an incoming req see
system.mem_ctrls.wrQLenPdf::7                       1                       # What write queue length does an incoming req see
system.mem_ctrls.wrQLenPdf::8                       1                       # What write queue length does an incoming req see
system.mem_ctrls.wrQLenPdf::9                       1                       # What write queue length does an incoming req see
system.mem_ctrls.wrQLenPdf::10                      1                       # What write queue length does an incoming req see
system.mem_ctrls.wrQLenPdf::11                      1                       # What write queue length does an incoming req see
system.mem_ctrls.wrQLenPdf::12                      1                       # What write queue length does an incoming req see
system.mem_ctrls.wrQLenPdf::13                      1                       # What write queue length does an incoming req see
system.mem_ctrls.wrQLenPdf::14                      1                       # What write queue length does an incoming req see
system.mem_ctrls.wrQLenPdf::15                  60395                       # What write queue length does an incoming req see
system.mem_ctrls.wrQLenPdf::16                 206437                       # What write queue length does an incoming req see
system.mem_ctrls.wrQLenPdf::17                 429024                       # What write queue length does an incoming req see
system.mem_ctrls.wrQLenPdf::18                 429024                       # What write queue length does an incoming req see
system.mem_ctrls.wrQLenPdf::19                 429024                       # What write queue length does an incoming req see
system.mem_ctrls.wrQLenPdf::20                 429025                       # What write queue length does an incoming req see
system.mem_ctrls.wrQLenPdf::21                 429024                       # What write queue length does an incoming req see
system.mem_ctrls.wrQLenPdf::22                 429024                       # What write queue length does an incoming req see
system.mem_ctrls.wrQLenPdf::23                 429024                       # What write queue length does an incoming req see
system.mem_ctrls.wrQLenPdf::24                 429025                       # What write queue length does an incoming req see
system.mem_ctrls.wrQLenPdf::25                 429024                       # What write queue length does an incoming req see
system.mem_ctrls.wrQLenPdf::26                 429023                       # What write queue length does an incoming req see
system.mem_ctrls.wrQLenPdf::27                 429023                       # What write queue length does an incoming req see
system.mem_ctrls.wrQLenPdf::28                 429023                       # What write queue length does an incoming req see
system.mem_ctrls.wrQLenPdf::29                 429042                       # What write queue length does an incoming req see
system.mem_ctrls.wrQLenPdf::30                 429025                       # What write queue length does an incoming req see
system.mem_ctrls.wrQLenPdf::31                 429025                       # What write queue length does an incoming req see
system.mem_ctrls.wrQLenPdf::32                 429023                       # What write queue length does an incoming req see
system.mem_ctrls.wrQLenPdf::33                      0                       # What write queue length does an incoming req see
system.mem_ctrls.wrQLenPdf::34                      0                       # What write queue length does an incoming req see
system.mem_ctrls.wrQLenPdf::35                      0                       # What write queue length does an incoming req see
system.mem_ctrls.wrQLenPdf::36                      0                       # What write queue length does an incoming req see
system.mem_ctrls.wrQLenPdf::37                      0                       # What write queue length does an incoming req see
system.mem_ctrls.wrQLenPdf::38                      0                       # What write queue length does an incoming req see
system.mem_ctrls.wrQLenPdf::39                      0                       # What write queue length does an incoming req see
system.mem_ctrls.wrQLenPdf::40                      0                       # What write queue length does an incoming req see
system.mem_ctrls.wrQLenPdf::41                      0                       # What write queue length does an incoming req see
system.mem_ctrls.wrQLenPdf::42                      0                       # What write queue length does an incoming req see
system.mem_ctrls.wrQLenPdf::43                      0                       # What write queue length does an incoming req see
system.mem_ctrls.wrQLenPdf::44                      0                       # What write queue length does an incoming req see
system.mem_ctrls.wrQLenPdf::45                      0                       # What write queue length does an incoming req see
system.mem_ctrls.wrQLenPdf::46                      0                       # What write queue length does an incoming req see
system.mem_ctrls.wrQLenPdf::47                      0                       # What write queue length does an incoming req see
system.mem_ctrls.wrQLenPdf::48                      0                       # What write queue length does an incoming req see
system.mem_ctrls.wrQLenPdf::49                      0                       # What write queue length does an incoming req see
system.mem_ctrls.wrQLenPdf::50                      0                       # What write queue length does an incoming req see
system.mem_ctrls.wrQLenPdf::51                      0                       # What write queue length does an incoming req see
system.mem_ctrls.wrQLenPdf::52                      0                       # What write queue length does an incoming req see
system.mem_ctrls.wrQLenPdf::53                      0                       # What write queue length does an incoming req see
system.mem_ctrls.wrQLenPdf::54                      0                       # What write queue length does an incoming req see
system.mem_ctrls.wrQLenPdf::55                      0                       # What write queue length does an incoming req see
system.mem_ctrls.wrQLenPdf::56                      0                       # What write queue length does an incoming req see
system.mem_ctrls.wrQLenPdf::57                      0                       # What write queue length does an incoming req see
system.mem_ctrls.wrQLenPdf::58                      0                       # What write queue length does an incoming req see
system.mem_ctrls.wrQLenPdf::59                      0                       # What write queue length does an incoming req see
system.mem_ctrls.wrQLenPdf::60                      0                       # What write queue length does an incoming req see
system.mem_ctrls.wrQLenPdf::61                      0                       # What write queue length does an incoming req see
system.mem_ctrls.wrQLenPdf::62                      0                       # What write queue length does an incoming req see
system.mem_ctrls.wrQLenPdf::63                      0                       # What write queue length does an incoming req see
system.mem_ctrls.bytesPerActivate::samples      1884529                       # Bytes accessed per row activation
system.mem_ctrls.bytesPerActivate::mean    712.655472                       # Bytes accessed per row activation
system.mem_ctrls.bytesPerActivate::gmean   527.337258                       # Bytes accessed per row activation
system.mem_ctrls.bytesPerActivate::stdev   378.587866                       # Bytes accessed per row activation
system.mem_ctrls.bytesPerActivate::0-127       200539     10.64%     10.64% # Bytes accessed per row activation
system.mem_ctrls.bytesPerActivate::128-255       178456      9.47%     20.11% # Bytes accessed per row activation
system.mem_ctrls.bytesPerActivate::256-383       114326      6.07%     26.18% # Bytes accessed per row activation
system.mem_ctrls.bytesPerActivate::384-511        89196      4.73%     30.91% # Bytes accessed per row activation
system.mem_ctrls.bytesPerActivate::512-639        87055      4.62%     35.53% # Bytes accessed per row activation
system.mem_ctrls.bytesPerActivate::640-767        82151      4.36%     39.89% # Bytes accessed per row activation
system.mem_ctrls.bytesPerActivate::768-895        96350      5.11%     45.00% # Bytes accessed per row activation
system.mem_ctrls.bytesPerActivate::896-1023        82926      4.40%     49.40% # Bytes accessed per row activation
system.mem_ctrls.bytesPerActivate::1024-1151       953530     50.60%    100.00% # Bytes accessed per row activation
system.mem_ctrls.bytesPerActivate::total      1884529                       # Bytes accessed per row activation
system.mem_ctrls.rdPerTurnAround::samples       429023                       # Reads before turning the bus around for writes
system.mem_ctrls.rdPerTurnAround::mean      32.290698                       # Reads before turning the bus around for writes
system.mem_ctrls.rdPerTurnAround::gmean     31.913156                       # Reads before turning the bus around for writes
system.mem_ctrls.rdPerTurnAround::stdev     43.834728                       # Reads before turning the bus around for writes
system.mem_ctrls.rdPerTurnAround::0-1023       429021    100.00%    100.00% # Reads before turning the bus around for writes
system.mem_ctrls.rdPerTurnAround::4096-5119            1      0.00%    100.00% # Reads before turning the bus around for writes
system.mem_ctrls.rdPerTurnAround::27648-28671            1      0.00%    100.00% # Reads before turning the bus around for writes
system.mem_ctrls.rdPerTurnAround::total        429023                       # Reads before turning the bus around for writes
system.mem_ctrls.wrPerTurnAround::samples       429023                       # Writes before turning the bus around for reads
system.mem_ctrls.wrPerTurnAround::mean      16.622009                       # Writes before turning the bus around for reads
system.mem_ctrls.wrPerTurnAround::gmean     16.606753                       # Writes before turning the bus around for reads
system.mem_ctrls.wrPerTurnAround::stdev      0.718957                       # Writes before turning the bus around for reads
system.mem_ctrls.wrPerTurnAround::16           222587     51.88%     51.88% # Writes before turning the bus around for reads
system.mem_ctrls.wrPerTurnAround::17           146042     34.04%     85.92% # Writes before turning the bus around for reads
system.mem_ctrls.wrPerTurnAround::18            60368     14.07%     99.99% # Writes before turning the bus around for reads
system.mem_ctrls.wrPerTurnAround::19               26      0.01%    100.00% # Writes before turning the bus around for reads
system.mem_ctrls.wrPerTurnAround::total        429023                       # Writes before turning the bus around for reads
system.mem_ctrls.totQLat                 189559444000                       # Total ticks spent queuing
system.mem_ctrls.totMemAccLat            449311856500                       # Total ticks spent from burst creation until serviced by the DRAM
system.mem_ctrls.totBusLat                69267310000                       # Total ticks spent in databus transfers
system.mem_ctrls.avgQLat                     13683.18                       # Average queueing delay per DRAM burst
system.mem_ctrls.avgBusLat                    5000.00                       # Average bus latency per DRAM burst
system.mem_ctrls.avgMemAccLat                32433.18                       # Average memory access latency per DRAM burst
system.mem_ctrls.avgRdBW                       416.29                       # Average DRAM read bandwidth in MiByte/s
system.mem_ctrls.avgWrBW                       214.29                       # Average achieved write bandwidth in MiByte/s
system.mem_ctrls.avgRdBWSys                    208.14                       # Average system read bandwidth in MiByte/s
system.mem_ctrls.avgWrBWSys                    207.56                       # Average system write bandwidth in MiByte/s
system.mem_ctrls.peakBW                      12800.00                       # Theoretical peak bandwidth in MiByte/s
system.mem_ctrls.busUtil                         4.93                       # Data bus utilization in percentage
system.mem_ctrls.busUtilRead                     3.25                       # Data bus utilization in percentage for reads
system.mem_ctrls.busUtilWrite                    1.67                       # Data bus utilization in percentage for writes
system.mem_ctrls.avgRdQLen                       1.00                       # Average read queue length when enqueuing
system.mem_ctrls.avgWrQLen                      25.26                       # Average write queue length when enqueuing
system.mem_ctrls.readRowHits                 12647067                       # Number of row buffer hits during reads
system.mem_ctrls.writeRowHits                 6453090                       # Number of row buffer hits during writes
system.mem_ctrls.readRowHitRate                 91.29                       # Row buffer hit rate for reads
system.mem_ctrls.writeRowHitRate                90.49                       # Row buffer hit rate for writes
system.mem_ctrls.avgGap                      76947.23                       # Average gap between requests
system.mem_ctrls.pageHitRate                    91.02                       # Row buffer hit rate, read and write combined
system.mem_ctrls_0.actEnergy               6753654600                       # Energy for activate commands per rank (pJ)
system.mem_ctrls_0.preEnergy               3589652550                       # Energy for precharge commands per rank (pJ)
system.mem_ctrls_0.readEnergy             49478222220                       # Energy for read commands per rank (pJ)
system.mem_ctrls_0.writeEnergy            18613601280                       # Energy for write commands per rank (pJ)
system.mem_ctrls_0.refreshEnergy         97108817520.000015                       # Energy for refresh commands per rank (pJ)
system.mem_ctrls_0.actBackEnergy         124254543960                       # Energy for active background per rank (pJ)
system.mem_ctrls_0.preBackEnergy           6495655200                       # Energy for precharge background per rank (pJ)
system.mem_ctrls_0.actPowerDownEnergy    357756805830                       # Energy for active power-down per rank (pJ)
system.mem_ctrls_0.prePowerDownEnergy     37710085920                       # Energy for precharge power-down per rank (pJ)
system.mem_ctrls_0.selfRefreshEnergy     234260901405                       # Energy for self refresh per rank (pJ)
system.mem_ctrls_0.totalEnergy           936026310945                       # Total energy per rank (pJ)
system.mem_ctrls_0.averagePower            439.483385                       # Core power per rank (mW)
system.mem_ctrls_0.totalIdleTime         1839561861750                       # Total Idle time Per DRAM Rank
system.mem_ctrls_0.memoryStateTime::IDLE   4703833250                       # Time in different power states
system.mem_ctrls_0.memoryStateTime::REF   41146244000                       # Time in different power states
system.mem_ctrls_0.memoryStateTime::SREF 957661955250                       # Time in different power states
system.mem_ctrls_0.memoryStateTime::PRE_PDN  98203245000                       # Time in different power states
system.mem_ctrls_0.memoryStateTime::ACT  243563469500                       # Time in different power states
system.mem_ctrls_0.memoryStateTime::ACT_PDN 784554470500                       # Time in different power states
system.mem_ctrls_1.actEnergy               6701882460                       # Energy for activate commands per rank (pJ)
system.mem_ctrls_1.preEnergy               3562135005                       # Energy for precharge commands per rank (pJ)
system.mem_ctrls_1.readEnergy             49435496460                       # Energy for read commands per rank (pJ)
system.mem_ctrls_1.writeEnergy            18611388000                       # Energy for write commands per rank (pJ)
system.mem_ctrls_1.refreshEnergy         95395201200.000015                       # Energy for refresh commands per rank (pJ)
system.mem_ctrls_1.actBackEnergy         122683281390                       # Energy for active background per rank (pJ)
system.mem_ctrls_1.preBackEnergy           6375616800                       # Energy for precharge background per rank (pJ)
system.mem_ctrls_1.actPowerDownEnergy    353404188930                       # Energy for active power-down per rank (pJ)
system.mem_ctrls_1.prePowerDownEnergy     35193100800                       # Energy for precharge power-down per rank (pJ)
system.mem_ctrls_1.selfRefreshEnergy     238885875975                       # Energy for self refresh per rank (pJ)
system.mem_ctrls_1.totalEnergy           930252074970                       # Total energy per rank (pJ)
system.mem_ctrls_1.averagePower            436.772263                       # Core power per rank (mW)
system.mem_ctrls_1.totalIdleTime         1843331492250                       # Total Idle time Per DRAM Rank
system.mem_ctrls_1.memoryStateTime::IDLE   4454353250                       # Time in different power states
system.mem_ctrls_1.memoryStateTime::REF   40419948000                       # Time in different power states
system.mem_ctrls_1.memoryStateTime::SREF 977521206500                       # Time in different power states
system.mem_ctrls_1.memoryStateTime::PRE_PDN  91648687500                       # Time in different power states
system.mem_ctrls_1.memoryStateTime::ACT  240779748000                       # Time in different power states
system.mem_ctrls_1.memoryStateTime::ACT_PDN 775009274250                       # Time in different power states
system.pwrStateResidencyTicks::UNDEFINED 2129833217500                       # Cumulative time (in ticks) in various power states
system.cpu_voltage_domain.voltage                   1                       # Voltage in Volts
system.cpu_clk_domain.clock                       500                       # Clock period in ticks
system.cpu.dtb.walker.pwrStateResidencyTicks::UNDEFINED 2129833217500                       # Cumulative time (in ticks) in various power states
system.cpu.apic_clk_domain.clock                 8000                       # Clock period in ticks
system.cpu.interrupts.pwrStateResidencyTicks::UNDEFINED 2129833217500                       # Cumulative time (in ticks) in various power states
system.cpu.itb.walker.pwrStateResidencyTicks::UNDEFINED 2129833217500                       # Cumulative time (in ticks) in various power states
system.cpu.workload.num_syscalls                  168                       # Number of system calls
system.cpu.pwrStateResidencyTicks::ON    2129833217500                       # Cumulative time (in ticks) in various power states
system.cpu.numCycles                       4259666435                       # number of cpu cycles simulated
system.cpu.numWorkItemsStarted                      0                       # number of work items this cpu started
system.cpu.numWorkItemsCompleted                    0                       # number of work items this cpu completed
system.cpu.committedInsts                   500000000                       # Number of instructions committed
system.cpu.committedOps                     648963383                       # Number of ops (including micro ops) committed
system.cpu.num_int_alu_accesses             648962728                       # Number of integer alu accesses
system.cpu.num_fp_alu_accesses                    848                       # Number of float alu accesses
system.cpu.num_func_calls                     2369346                       # number of times a function call or return occured
system.cpu.num_conditional_control_insts     15707705                       # number of instructions that are conditional controls
system.cpu.num_int_insts                    648962728                       # number of integer instructions
system.cpu.num_fp_insts                           848                       # number of float instructions
system.cpu.num_int_register_reads          1304344848                       # number of times the integer registers were read
system.cpu.num_int_register_writes          560057856                       # number of times the integer registers were written
system.cpu.num_fp_register_reads                 1341                       # number of times the floating registers were read
system.cpu.num_fp_register_writes                 581                       # number of times the floating registers were written
system.cpu.num_cc_register_reads             95274047                       # number of times the CC registers were read
system.cpu.num_cc_register_writes           257707815                       # number of times the CC registers were written
system.cpu.num_mem_refs                     216142387                       # number of memory refs
system.cpu.num_load_insts                   144433139                       # Number of load instructions
system.cpu.num_store_insts                   71709248                       # Number of store instructions
system.cpu.num_idle_cycles                          0                       # Number of idle cycles
system.cpu.num_busy_cycles                 4259666435                       # Number of busy cycles
system.cpu.not_idle_fraction                        1                       # Percentage of non-idle cycles
system.cpu.idle_fraction                            0                       # Percentage of idle cycles
system.cpu.Branches                          18089551                       # Number of branches fetched
system.cpu.op_class::No_OpClass                   160      0.00%      0.00% # Class of executed instruction
system.cpu.op_class::IntAlu                 431926300     66.56%     66.56% # Class of executed instruction
system.cpu.op_class::IntMult                   893946      0.14%     66.69% # Class of executed instruction
system.cpu.op_class::IntDiv                        70      0.00%     66.69% # Class of executed instruction
system.cpu.op_class::FloatAdd                     520      0.00%     66.69% # Class of executed instruction
system.cpu.op_class::FloatCmp                       0      0.00%     66.69% # Class of executed instruction
system.cpu.op_class::FloatCvt                       0      0.00%     66.69% # Class of executed instruction
system.cpu.op_class::FloatMult                      0      0.00%     66.69% # Class of executed instruction
system.cpu.op_class::FloatDiv                       0      0.00%     66.69% # Class of executed instruction
system.cpu.op_class::FloatSqrt                      0      0.00%     66.69% # Class of executed instruction
system.cpu.op_class::SimdAdd                        0      0.00%     66.69% # Class of executed instruction
system.cpu.op_class::SimdAddAcc                     0      0.00%     66.69% # Class of executed instruction
system.cpu.op_class::SimdAlu                        0      0.00%     66.69% # Class of executed instruction
system.cpu.op_class::SimdCmp                        0      0.00%     66.69% # Class of executed instruction
system.cpu.op_class::SimdCvt                        0      0.00%     66.69% # Class of executed instruction
system.cpu.op_class::SimdMisc                       0      0.00%     66.69% # Class of executed instruction
system.cpu.op_class::SimdMult                       0      0.00%     66.69% # Class of executed instruction
system.cpu.op_class::SimdMultAcc                    0      0.00%     66.69% # Class of executed instruction
system.cpu.op_class::SimdShift                      0      0.00%     66.69% # Class of executed instruction
system.cpu.op_class::SimdShiftAcc                   0      0.00%     66.69% # Class of executed instruction
system.cpu.op_class::SimdSqrt                       0      0.00%     66.69% # Class of executed instruction
system.cpu.op_class::SimdFloatAdd                   0      0.00%     66.69% # Class of executed instruction
system.cpu.op_class::SimdFloatAlu                   0      0.00%     66.69% # Class of executed instruction
system.cpu.op_class::SimdFloatCmp                   0      0.00%     66.69% # Class of executed instruction
system.cpu.op_class::SimdFloatCvt                   0      0.00%     66.69% # Class of executed instruction
system.cpu.op_class::SimdFloatDiv                   0      0.00%     66.69% # Class of executed instruction
system.cpu.op_class::SimdFloatMisc                  0      0.00%     66.69% # Class of executed instruction
system.cpu.op_class::SimdFloatMult                  0      0.00%     66.69% # Class of executed instruction
system.cpu.op_class::SimdFloatMultAcc               0      0.00%     66.69% # Class of executed instruction
system.cpu.op_class::SimdFloatSqrt                  0      0.00%     66.69% # Class of executed instruction
system.cpu.op_class::MemRead                144433139     22.26%     88.95% # Class of executed instruction
system.cpu.op_class::MemWrite                71709248     11.05%    100.00% # Class of executed instruction
system.cpu.op_class::IprAccess                      0      0.00%    100.00% # Class of executed instruction
system.cpu.op_class::InstPrefetch                   0      0.00%    100.00% # Class of executed instruction
system.cpu.op_class::total                  648963383                       # Class of executed instruction
system.cpu.dcache.tags.pwrStateResidencyTicks::UNDEFINED 2129833217500                       # Cumulative time (in ticks) in various power states
system.cpu.dcache.tags.replacements          13858685                       # number of replacements
system.cpu.dcache.tags.tagsinuse          4095.291623                       # Cycle average of tags in use
system.cpu.dcache.tags.total_refs           202279626                       # Total number of references to valid blocks.
system.cpu.dcache.tags.sampled_refs          13862781                       # Sample count of references to valid blocks.
system.cpu.dcache.tags.avg_refs             14.591562                       # Average number of references to valid blocks.
system.cpu.dcache.tags.warmup_cycle         709282500                       # Cycle when the warmup percentage was hit.
system.cpu.dcache.tags.occ_blocks::cpu.data  4095.291623                       # Average occupied blocks per requestor
system.cpu.dcache.tags.occ_percent::cpu.data     0.999827                       # Average percentage of cache occupancy
system.cpu.dcache.tags.occ_percent::total     0.999827                       # Average percentage of cache occupancy
system.cpu.dcache.tags.occ_task_id_blocks::1024         4096                       # Occupied blocks per task id
system.cpu.dcache.tags.age_task_id_blocks_1024::2           45                       # Occupied blocks per task id
system.cpu.dcache.tags.age_task_id_blocks_1024::3         3780                       # Occupied blocks per task id
system.cpu.dcache.tags.age_task_id_blocks_1024::4          271                       # Occupied blocks per task id
system.cpu.dcache.tags.occ_task_id_percent::1024            1                       # Percentage of cache occupancy per task id
system.cpu.dcache.tags.tag_accesses        1743002037                       # Number of tag accesses
system.cpu.dcache.tags.data_accesses       1743002037                       # Number of data accesses
system.cpu.dcache.pwrStateResidencyTicks::UNDEFINED 2129833217500                       # Cumulative time (in ticks) in various power states
system.cpu.dcache.ReadReq_hits::cpu.data    143970771                       # number of ReadReq hits
system.cpu.dcache.ReadReq_hits::total       143970771                       # number of ReadReq hits
system.cpu.dcache.WriteReq_hits::cpu.data     58308855                       # number of WriteReq hits
system.cpu.dcache.WriteReq_hits::total       58308855                       # number of WriteReq hits
system.cpu.dcache.demand_hits::cpu.data     202279626                       # number of demand (read+write) hits
system.cpu.dcache.demand_hits::total        202279626                       # number of demand (read+write) hits
system.cpu.dcache.overall_hits::cpu.data    202279626                       # number of overall hits
system.cpu.dcache.overall_hits::total       202279626                       # number of overall hits
system.cpu.dcache.ReadReq_misses::cpu.data       462385                       # number of ReadReq misses
system.cpu.dcache.ReadReq_misses::total        462385                       # number of ReadReq misses
system.cpu.dcache.WriteReq_misses::cpu.data     13400396                       # number of WriteReq misses
system.cpu.dcache.WriteReq_misses::total     13400396                       # number of WriteReq misses
system.cpu.dcache.demand_misses::cpu.data     13862781                       # number of demand (read+write) misses
system.cpu.dcache.demand_misses::total       13862781                       # number of demand (read+write) misses
system.cpu.dcache.overall_misses::cpu.data     13862781                       # number of overall misses
system.cpu.dcache.overall_misses::total      13862781                       # number of overall misses
system.cpu.dcache.ReadReq_miss_latency::cpu.data  40239904500                       # number of ReadReq miss cycles
system.cpu.dcache.ReadReq_miss_latency::total  40239904500                       # number of ReadReq miss cycles
system.cpu.dcache.WriteReq_miss_latency::cpu.data 1147031200000                       # number of WriteReq miss cycles
system.cpu.dcache.WriteReq_miss_latency::total 1147031200000                       # number of WriteReq miss cycles
system.cpu.dcache.demand_miss_latency::cpu.data 1187271104500                       # number of demand (read+write) miss cycles
system.cpu.dcache.demand_miss_latency::total 1187271104500                       # number of demand (read+write) miss cycles
system.cpu.dcache.overall_miss_latency::cpu.data 1187271104500                       # number of overall miss cycles
system.cpu.dcache.overall_miss_latency::total 1187271104500                       # number of overall miss cycles
system.cpu.dcache.ReadReq_accesses::cpu.data    144433156                       # number of ReadReq accesses(hits+misses)
system.cpu.dcache.ReadReq_accesses::total    144433156                       # number of ReadReq accesses(hits+misses)
system.cpu.dcache.WriteReq_accesses::cpu.data     71709251                       # number of WriteReq accesses(hits+misses)
system.cpu.dcache.WriteReq_accesses::total     71709251                       # number of WriteReq accesses(hits+misses)
system.cpu.dcache.demand_accesses::cpu.data    216142407                       # number of demand (read+write) accesses
system.cpu.dcache.demand_accesses::total    216142407                       # number of demand (read+write) accesses
system.cpu.dcache.overall_accesses::cpu.data    216142407                       # number of overall (read+write) accesses
system.cpu.dcache.overall_accesses::total    216142407                       # number of overall (read+write) accesses
system.cpu.dcache.ReadReq_miss_rate::cpu.data     0.003201                       # miss rate for ReadReq accesses
system.cpu.dcache.ReadReq_miss_rate::total     0.003201                       # miss rate for ReadReq accesses
system.cpu.dcache.WriteReq_miss_rate::cpu.data     0.186871                       # miss rate for WriteReq accesses
system.cpu.dcache.WriteReq_miss_rate::total     0.186871                       # miss rate for WriteReq accesses
system.cpu.dcache.demand_miss_rate::cpu.data     0.064137                       # miss rate for demand accesses
system.cpu.dcache.demand_miss_rate::total     0.064137                       # miss rate for demand accesses
system.cpu.dcache.overall_miss_rate::cpu.data     0.064137                       # miss rate for overall accesses
system.cpu.dcache.overall_miss_rate::total     0.064137                       # miss rate for overall accesses
system.cpu.dcache.ReadReq_avg_miss_latency::cpu.data 87026.838025                       # average ReadReq miss latency
system.cpu.dcache.ReadReq_avg_miss_latency::total 87026.838025                       # average ReadReq miss latency
system.cpu.dcache.WriteReq_avg_miss_latency::cpu.data 85596.813706                       # average WriteReq miss latency
system.cpu.dcache.WriteReq_avg_miss_latency::total 85596.813706                       # average WriteReq miss latency
system.cpu.dcache.demand_avg_miss_latency::cpu.data 85644.511336                       # average overall miss latency
system.cpu.dcache.demand_avg_miss_latency::total 85644.511336                       # average overall miss latency
system.cpu.dcache.overall_avg_miss_latency::cpu.data 85644.511336                       # average overall miss latency
system.cpu.dcache.overall_avg_miss_latency::total 85644.511336                       # average overall miss latency
system.cpu.dcache.blocked_cycles::no_mshrs            0                       # number of cycles access was blocked
system.cpu.dcache.blocked_cycles::no_targets            0                       # number of cycles access was blocked
system.cpu.dcache.blocked::no_mshrs                 0                       # number of cycles access was blocked
system.cpu.dcache.blocked::no_targets               0                       # number of cycles access was blocked
system.cpu.dcache.avg_blocked_cycles::no_mshrs          nan                       # average number of cycles each access was blocked
system.cpu.dcache.avg_blocked_cycles::no_targets          nan                       # average number of cycles each access was blocked
system.cpu.dcache.writebacks::writebacks     13843715                       # number of writebacks
system.cpu.dcache.writebacks::total          13843715                       # number of writebacks
system.cpu.dcache.ReadReq_mshr_misses::cpu.data       462385                       # number of ReadReq MSHR misses
system.cpu.dcache.ReadReq_mshr_misses::total       462385                       # number of ReadReq MSHR misses
system.cpu.dcache.WriteReq_mshr_misses::cpu.data     13400396                       # number of WriteReq MSHR misses
system.cpu.dcache.WriteReq_mshr_misses::total     13400396                       # number of WriteReq MSHR misses
system.cpu.dcache.demand_mshr_misses::cpu.data     13862781                       # number of demand (read+write) MSHR misses
system.cpu.dcache.demand_mshr_misses::total     13862781                       # number of demand (read+write) MSHR misses
system.cpu.dcache.overall_mshr_misses::cpu.data     13862781                       # number of overall MSHR misses
system.cpu.dcache.overall_mshr_misses::total     13862781                       # number of overall MSHR misses
system.cpu.dcache.ReadReq_mshr_miss_latency::cpu.data  39777519500                       # number of ReadReq MSHR miss cycles
system.cpu.dcache.ReadReq_mshr_miss_latency::total  39777519500                       # number of ReadReq MSHR miss cycles
system.cpu.dcache.WriteReq_mshr_miss_latency::cpu.data 1133630804000                       # number of WriteReq MSHR miss cycles
system.cpu.dcache.WriteReq_mshr_miss_latency::total 1133630804000                       # number of WriteReq MSHR miss cycles
system.cpu.dcache.demand_mshr_miss_latency::cpu.data 1173408323500                       # number of demand (read+write) MSHR miss cycles
system.cpu.dcache.demand_mshr_miss_latency::total 1173408323500                       # number of demand (read+write) MSHR miss cycles
system.cpu.dcache.overall_mshr_miss_latency::cpu.data 1173408323500                       # number of overall MSHR miss cycles
system.cpu.dcache.overall_mshr_miss_latency::total 1173408323500                       # number of overall MSHR miss cycles
system.cpu.dcache.ReadReq_mshr_miss_rate::cpu.data     0.003201                       # mshr miss rate for ReadReq accesses
system.cpu.dcache.ReadReq_mshr_miss_rate::total     0.003201                       # mshr miss rate for ReadReq accesses
system.cpu.dcache.WriteReq_mshr_miss_rate::cpu.data     0.186871                       # mshr miss rate for WriteReq accesses
system.cpu.dcache.WriteReq_mshr_miss_rate::total     0.186871                       # mshr miss rate for WriteReq accesses
system.cpu.dcache.demand_mshr_miss_rate::cpu.data     0.064137                       # mshr miss rate for demand accesses
system.cpu.dcache.demand_mshr_miss_rate::total     0.064137                       # mshr miss rate for demand accesses
system.cpu.dcache.overall_mshr_miss_rate::cpu.data     0.064137                       # mshr miss rate for overall accesses
system.cpu.dcache.overall_mshr_miss_rate::total     0.064137                       # mshr miss rate for overall accesses
system.cpu.dcache.ReadReq_avg_mshr_miss_latency::cpu.data 86026.838025                       # average ReadReq mshr miss latency
system.cpu.dcache.ReadReq_avg_mshr_miss_latency::total 86026.838025                       # average ReadReq mshr miss latency
system.cpu.dcache.WriteReq_avg_mshr_miss_latency::cpu.data 84596.813706                       # average WriteReq mshr miss latency
system.cpu.dcache.WriteReq_avg_mshr_miss_latency::total 84596.813706                       # average WriteReq mshr miss latency
system.cpu.dcache.demand_avg_mshr_miss_latency::cpu.data 84644.511336                       # average overall mshr miss latency
system.cpu.dcache.demand_avg_mshr_miss_latency::total 84644.511336                       # average overall mshr miss latency
system.cpu.dcache.overall_avg_mshr_miss_latency::cpu.data 84644.511336                       # average overall mshr miss latency
system.cpu.dcache.overall_avg_mshr_miss_latency::total 84644.511336                       # average overall mshr miss latency
system.cpu.dtb_walker_cache.tags.pwrStateResidencyTicks::UNDEFINED 2129833217500                       # Cumulative time (in ticks) in various power states
system.cpu.dtb_walker_cache.tags.replacements            0                       # number of replacements
system.cpu.dtb_walker_cache.tags.tagsinuse            0                       # Cycle average of tags in use
system.cpu.dtb_walker_cache.tags.total_refs            0                       # Total number of references to valid blocks.
system.cpu.dtb_walker_cache.tags.sampled_refs            0                       # Sample count of references to valid blocks.
system.cpu.dtb_walker_cache.tags.avg_refs          nan                       # Average number of references to valid blocks.
system.cpu.dtb_walker_cache.tags.warmup_cycle            0                       # Cycle when the warmup percentage was hit.
system.cpu.dtb_walker_cache.tags.tag_accesses            0                       # Number of tag accesses
system.cpu.dtb_walker_cache.tags.data_accesses            0                       # Number of data accesses
system.cpu.dtb_walker_cache.pwrStateResidencyTicks::UNDEFINED 2129833217500                       # Cumulative time (in ticks) in various power states
system.cpu.dtb_walker_cache.blocked_cycles::no_mshrs            0                       # number of cycles access was blocked
system.cpu.dtb_walker_cache.blocked_cycles::no_targets            0                       # number of cycles access was blocked
system.cpu.dtb_walker_cache.blocked::no_mshrs            0                       # number of cycles access was blocked
system.cpu.dtb_walker_cache.blocked::no_targets            0                       # number of cycles access was blocked
system.cpu.dtb_walker_cache.avg_blocked_cycles::no_mshrs          nan                       # average number of cycles each access was blocked
system.cpu.dtb_walker_cache.avg_blocked_cycles::no_targets          nan                       # average number of cycles each access was blocked
system.cpu.icache.tags.pwrStateResidencyTicks::UNDEFINED 2129833217500                       # Cumulative time (in ticks) in various power states
system.cpu.icache.tags.replacements                60                       # number of replacements
system.cpu.icache.tags.tagsinuse           756.634778                       # Cycle average of tags in use
system.cpu.icache.tags.total_refs           740207369                       # Total number of references to valid blocks.
system.cpu.icache.tags.sampled_refs               878                       # Sample count of references to valid blocks.
system.cpu.icache.tags.avg_refs          843060.784738                       # Average number of references to valid blocks.
system.cpu.icache.tags.warmup_cycle                 0                       # Cycle when the warmup percentage was hit.
system.cpu.icache.tags.occ_blocks::cpu.inst   756.634778                       # Average occupied blocks per requestor
system.cpu.icache.tags.occ_percent::cpu.inst     0.738901                       # Average percentage of cache occupancy
system.cpu.icache.tags.occ_percent::total     0.738901                       # Average percentage of cache occupancy
system.cpu.icache.tags.occ_task_id_blocks::1024          818                       # Occupied blocks per task id
system.cpu.icache.tags.age_task_id_blocks_1024::4          818                       # Occupied blocks per task id
system.cpu.icache.tags.occ_task_id_percent::1024     0.798828                       # Percentage of cache occupancy per task id
system.cpu.icache.tags.tag_accesses        5921666854                       # Number of tag accesses
system.cpu.icache.tags.data_accesses       5921666854                       # Number of data accesses
system.cpu.icache.pwrStateResidencyTicks::UNDEFINED 2129833217500                       # Cumulative time (in ticks) in various power states
system.cpu.icache.ReadReq_hits::cpu.inst    740207369                       # number of ReadReq hits
system.cpu.icache.ReadReq_hits::total       740207369                       # number of ReadReq hits
system.cpu.icache.demand_hits::cpu.inst     740207369                       # number of demand (read+write) hits
system.cpu.icache.demand_hits::total        740207369                       # number of demand (read+write) hits
system.cpu.icache.overall_hits::cpu.inst    740207369                       # number of overall hits
system.cpu.icache.overall_hits::total       740207369                       # number of overall hits
system.cpu.icache.ReadReq_misses::cpu.inst          878                       # number of ReadReq misses
system.cpu.icache.ReadReq_misses::total           878                       # number of ReadReq misses
system.cpu.icache.demand_misses::cpu.inst          878                       # number of demand (read+write) misses
system.cpu.icache.demand_misses::total            878                       # number of demand (read+write) misses
system.cpu.icache.overall_misses::cpu.inst          878                       # number of overall misses
system.cpu.icache.overall_misses::total           878                       # number of overall misses
system.cpu.icache.ReadReq_miss_latency::cpu.inst     75134500                       # number of ReadReq miss cycles
system.cpu.icache.ReadReq_miss_latency::total     75134500                       # number of ReadReq miss cycles
system.cpu.icache.demand_miss_latency::cpu.inst     75134500                       # number of demand (read+write) miss cycles
system.cpu.icache.demand_miss_latency::total     75134500                       # number of demand (read+write) miss cycles
system.cpu.icache.overall_miss_latency::cpu.inst     75134500                       # number of overall miss cycles
system.cpu.icache.overall_miss_latency::total     75134500                       # number of overall miss cycles
system.cpu.icache.ReadReq_accesses::cpu.inst    740208247                       # number of ReadReq accesses(hits+misses)
system.cpu.icache.ReadReq_accesses::total    740208247                       # number of ReadReq accesses(hits+misses)
system.cpu.icache.demand_accesses::cpu.inst    740208247                       # number of demand (read+write) accesses
system.cpu.icache.demand_accesses::total    740208247                       # number of demand (read+write) accesses
system.cpu.icache.overall_accesses::cpu.inst    740208247                       # number of overall (read+write) accesses
system.cpu.icache.overall_accesses::total    740208247                       # number of overall (read+write) accesses
system.cpu.icache.ReadReq_miss_rate::cpu.inst     0.000001                       # miss rate for ReadReq accesses
system.cpu.icache.ReadReq_miss_rate::total     0.000001                       # miss rate for ReadReq accesses
system.cpu.icache.demand_miss_rate::cpu.inst     0.000001                       # miss rate for demand accesses
system.cpu.icache.demand_miss_rate::total     0.000001                       # miss rate for demand accesses
system.cpu.icache.overall_miss_rate::cpu.inst     0.000001                       # miss rate for overall accesses
system.cpu.icache.overall_miss_rate::total     0.000001                       # miss rate for overall accesses
system.cpu.icache.ReadReq_avg_miss_latency::cpu.inst 85574.601367                       # average ReadReq miss latency
system.cpu.icache.ReadReq_avg_miss_latency::total 85574.601367                       # average ReadReq miss latency
system.cpu.icache.demand_avg_miss_latency::cpu.inst 85574.601367                       # average overall miss latency
system.cpu.icache.demand_avg_miss_latency::total 85574.601367                       # average overall miss latency
system.cpu.icache.overall_avg_miss_latency::cpu.inst 85574.601367                       # average overall miss latency
system.cpu.icache.overall_avg_miss_latency::total 85574.601367                       # average overall miss latency
system.cpu.icache.blocked_cycles::no_mshrs            0                       # number of cycles access was blocked
system.cpu.icache.blocked_cycles::no_targets            0                       # number of cycles access was blocked
system.cpu.icache.blocked::no_mshrs                 0                       # number of cycles access was blocked
system.cpu.icache.blocked::no_targets               0                       # number of cycles access was blocked
system.cpu.icache.avg_blocked_cycles::no_mshrs          nan                       # average number of cycles each access was blocked
system.cpu.icache.avg_blocked_cycles::no_targets          nan                       # average number of cycles each access was blocked
system.cpu.icache.writebacks::writebacks           60                       # number of writebacks
system.cpu.icache.writebacks::total                60                       # number of writebacks
system.cpu.icache.ReadReq_mshr_misses::cpu.inst          878                       # number of ReadReq MSHR misses
system.cpu.icache.ReadReq_mshr_misses::total          878                       # number of ReadReq MSHR misses
system.cpu.icache.demand_mshr_misses::cpu.inst          878                       # number of demand (read+write) MSHR misses
system.cpu.icache.demand_mshr_misses::total          878                       # number of demand (read+write) MSHR misses
system.cpu.icache.overall_mshr_misses::cpu.inst          878                       # number of overall MSHR misses
system.cpu.icache.overall_mshr_misses::total          878                       # number of overall MSHR misses
system.cpu.icache.ReadReq_mshr_miss_latency::cpu.inst     74256500                       # number of ReadReq MSHR miss cycles
system.cpu.icache.ReadReq_mshr_miss_latency::total     74256500                       # number of ReadReq MSHR miss cycles
system.cpu.icache.demand_mshr_miss_latency::cpu.inst     74256500                       # number of demand (read+write) MSHR miss cycles
system.cpu.icache.demand_mshr_miss_latency::total     74256500                       # number of demand (read+write) MSHR miss cycles
system.cpu.icache.overall_mshr_miss_latency::cpu.inst     74256500                       # number of overall MSHR miss cycles
system.cpu.icache.overall_mshr_miss_latency::total     74256500                       # number of overall MSHR miss cycles
system.cpu.icache.ReadReq_mshr_miss_rate::cpu.inst     0.000001                       # mshr miss rate for ReadReq accesses
system.cpu.icache.ReadReq_mshr_miss_rate::total     0.000001                       # mshr miss rate for ReadReq accesses
system.cpu.icache.demand_mshr_miss_rate::cpu.inst     0.000001                       # mshr miss rate for demand accesses
system.cpu.icache.demand_mshr_miss_rate::total     0.000001                       # mshr miss rate for demand accesses
system.cpu.icache.overall_mshr_miss_rate::cpu.inst     0.000001                       # mshr miss rate for overall accesses
system.cpu.icache.overall_mshr_miss_rate::total     0.000001                       # mshr miss rate for overall accesses
system.cpu.icache.ReadReq_avg_mshr_miss_latency::cpu.inst 84574.601367                       # average ReadReq mshr miss latency
system.cpu.icache.ReadReq_avg_mshr_miss_latency::total 84574.601367                       # average ReadReq mshr miss latency
system.cpu.icache.demand_avg_mshr_miss_latency::cpu.inst 84574.601367                       # average overall mshr miss latency
system.cpu.icache.demand_avg_mshr_miss_latency::total 84574.601367                       # average overall mshr miss latency
system.cpu.icache.overall_avg_mshr_miss_latency::cpu.inst 84574.601367                       # average overall mshr miss latency
system.cpu.icache.overall_avg_mshr_miss_latency::total 84574.601367                       # average overall mshr miss latency
system.cpu.itb_walker_cache.tags.pwrStateResidencyTicks::UNDEFINED 2129833217500                       # Cumulative time (in ticks) in various power states
system.cpu.itb_walker_cache.tags.replacements            0                       # number of replacements
system.cpu.itb_walker_cache.tags.tagsinuse            0                       # Cycle average of tags in use
system.cpu.itb_walker_cache.tags.total_refs            0                       # Total number of references to valid blocks.
system.cpu.itb_walker_cache.tags.sampled_refs            0                       # Sample count of references to valid blocks.
system.cpu.itb_walker_cache.tags.avg_refs          nan                       # Average number of references to valid blocks.
system.cpu.itb_walker_cache.tags.warmup_cycle            0                       # Cycle when the warmup percentage was hit.
system.cpu.itb_walker_cache.tags.tag_accesses            0                       # Number of tag accesses
system.cpu.itb_walker_cache.tags.data_accesses            0                       # Number of data accesses
system.cpu.itb_walker_cache.pwrStateResidencyTicks::UNDEFINED 2129833217500                       # Cumulative time (in ticks) in various power states
system.cpu.itb_walker_cache.blocked_cycles::no_mshrs            0                       # number of cycles access was blocked
system.cpu.itb_walker_cache.blocked_cycles::no_targets            0                       # number of cycles access was blocked
system.cpu.itb_walker_cache.blocked::no_mshrs            0                       # number of cycles access was blocked
system.cpu.itb_walker_cache.blocked::no_targets            0                       # number of cycles access was blocked
system.cpu.itb_walker_cache.avg_blocked_cycles::no_mshrs          nan                       # average number of cycles each access was blocked
system.cpu.itb_walker_cache.avg_blocked_cycles::no_targets          nan                       # average number of cycles each access was blocked
system.l2.tags.pwrStateResidencyTicks::UNDEFINED 2129833217500                       # Cumulative time (in ticks) in various power states
system.l2.tags.replacements                  13823395                       # number of replacements
system.l2.tags.tagsinuse                 32730.746123                       # Cycle average of tags in use
system.l2.tags.total_refs                    13861525                       # Total number of references to valid blocks.
system.l2.tags.sampled_refs                  13856163                       # Sample count of references to valid blocks.
system.l2.tags.avg_refs                      1.000387                       # Average number of references to valid blocks.
system.l2.tags.warmup_cycle                4856687000                       # Cycle when the warmup percentage was hit.
system.l2.tags.occ_blocks::writebacks        4.000201                       # Average occupied blocks per requestor
system.l2.tags.occ_blocks::cpu.inst          1.116491                       # Average occupied blocks per requestor
system.l2.tags.occ_blocks::cpu.data      32725.629431                       # Average occupied blocks per requestor
system.l2.tags.occ_percent::writebacks       0.000122                       # Average percentage of cache occupancy
system.l2.tags.occ_percent::cpu.inst         0.000034                       # Average percentage of cache occupancy
system.l2.tags.occ_percent::cpu.data         0.998707                       # Average percentage of cache occupancy
system.l2.tags.occ_percent::total            0.998863                       # Average percentage of cache occupancy
system.l2.tags.occ_task_id_blocks::1024         32768                       # Occupied blocks per task id
system.l2.tags.age_task_id_blocks_1024::2           45                       # Occupied blocks per task id
system.l2.tags.age_task_id_blocks_1024::3         6078                       # Occupied blocks per task id
system.l2.tags.age_task_id_blocks_1024::4        26645                       # Occupied blocks per task id
system.l2.tags.occ_task_id_percent::1024            1                       # Percentage of cache occupancy per task id
system.l2.tags.tag_accesses                  41578566                       # Number of tag accesses
system.l2.tags.data_accesses                 41578566                       # Number of data accesses
system.l2.pwrStateResidencyTicks::UNDEFINED 2129833217500                       # Cumulative time (in ticks) in various power states
system.l2.WritebackDirty_hits::writebacks     13843715                       # number of WritebackDirty hits
system.l2.WritebackDirty_hits::total         13843715                       # number of WritebackDirty hits
system.l2.WritebackClean_hits::writebacks           60                       # number of WritebackClean hits
system.l2.WritebackClean_hits::total               60                       # number of WritebackClean hits
system.l2.ReadExReq_hits::cpu.data                148                       # number of ReadExReq hits
system.l2.ReadExReq_hits::total                   148                       # number of ReadExReq hits
system.l2.ReadCleanReq_hits::cpu.inst               9                       # number of ReadCleanReq hits
system.l2.ReadCleanReq_hits::total                  9                       # number of ReadCleanReq hits
system.l2.ReadSharedReq_hits::cpu.data          10040                       # number of ReadSharedReq hits
system.l2.ReadSharedReq_hits::total             10040                       # number of ReadSharedReq hits
system.l2.demand_hits::cpu.inst                     9                       # number of demand (read+write) hits
system.l2.demand_hits::cpu.data                 10188                       # number of demand (read+write) hits
system.l2.demand_hits::total                    10197                       # number of demand (read+write) hits
system.l2.overall_hits::cpu.inst                    9                       # number of overall hits
system.l2.overall_hits::cpu.data                10188                       # number of overall hits
system.l2.overall_hits::total                   10197                       # number of overall hits
system.l2.ReadExReq_misses::cpu.data         13400248                       # number of ReadExReq misses
system.l2.ReadExReq_misses::total            13400248                       # number of ReadExReq misses
system.l2.ReadCleanReq_misses::cpu.inst           869                       # number of ReadCleanReq misses
system.l2.ReadCleanReq_misses::total              869                       # number of ReadCleanReq misses
system.l2.ReadSharedReq_misses::cpu.data       452345                       # number of ReadSharedReq misses
system.l2.ReadSharedReq_misses::total          452345                       # number of ReadSharedReq misses
system.l2.demand_misses::cpu.inst                 869                       # number of demand (read+write) misses
system.l2.demand_misses::cpu.data            13852593                       # number of demand (read+write) misses
system.l2.demand_misses::total               13853462                       # number of demand (read+write) misses
system.l2.overall_misses::cpu.inst                869                       # number of overall misses
system.l2.overall_misses::cpu.data           13852593                       # number of overall misses
system.l2.overall_misses::total              13853462                       # number of overall misses
system.l2.ReadExReq_miss_latency::cpu.data 1113528656000                       # number of ReadExReq miss cycles
system.l2.ReadExReq_miss_latency::total  1113528656000                       # number of ReadExReq miss cycles
system.l2.ReadCleanReq_miss_latency::cpu.inst     72844000                       # number of ReadCleanReq miss cycles
system.l2.ReadCleanReq_miss_latency::total     72844000                       # number of ReadCleanReq miss cycles
system.l2.ReadSharedReq_miss_latency::cpu.data  38978522000                       # number of ReadSharedReq miss cycles
system.l2.ReadSharedReq_miss_latency::total  38978522000                       # number of ReadSharedReq miss cycles
system.l2.demand_miss_latency::cpu.inst      72844000                       # number of demand (read+write) miss cycles
system.l2.demand_miss_latency::cpu.data  1152507178000                       # number of demand (read+write) miss cycles
system.l2.demand_miss_latency::total     1152580022000                       # number of demand (read+write) miss cycles
system.l2.overall_miss_latency::cpu.inst     72844000                       # number of overall miss cycles
system.l2.overall_miss_latency::cpu.data 1152507178000                       # number of overall miss cycles
system.l2.overall_miss_latency::total    1152580022000                       # number of overall miss cycles
system.l2.WritebackDirty_accesses::writebacks     13843715                       # number of WritebackDirty accesses(hits+misses)
system.l2.WritebackDirty_accesses::total     13843715                       # number of WritebackDirty accesses(hits+misses)
system.l2.WritebackClean_accesses::writebacks           60                       # number of WritebackClean accesses(hits+misses)
system.l2.WritebackClean_accesses::total           60                       # number of WritebackClean accesses(hits+misses)
system.l2.ReadExReq_accesses::cpu.data       13400396                       # number of ReadExReq accesses(hits+misses)
system.l2.ReadExReq_accesses::total          13400396                       # number of ReadExReq accesses(hits+misses)
system.l2.ReadCleanReq_accesses::cpu.inst          878                       # number of ReadCleanReq accesses(hits+misses)
system.l2.ReadCleanReq_accesses::total            878                       # number of ReadCleanReq accesses(hits+misses)
system.l2.ReadSharedReq_accesses::cpu.data       462385                       # number of ReadSharedReq accesses(hits+misses)
system.l2.ReadSharedReq_accesses::total        462385                       # number of ReadSharedReq accesses(hits+misses)
system.l2.demand_accesses::cpu.inst               878                       # number of demand (read+write) accesses
system.l2.demand_accesses::cpu.data          13862781                       # number of demand (read+write) accesses
system.l2.demand_accesses::total             13863659                       # number of demand (read+write) accesses
system.l2.overall_accesses::cpu.inst              878                       # number of overall (read+write) accesses
system.l2.overall_accesses::cpu.data         13862781                       # number of overall (read+write) accesses
system.l2.overall_accesses::total            13863659                       # number of overall (read+write) accesses
system.l2.ReadExReq_miss_rate::cpu.data      0.999989                       # miss rate for ReadExReq accesses
system.l2.ReadExReq_miss_rate::total         0.999989                       # miss rate for ReadExReq accesses
system.l2.ReadCleanReq_miss_rate::cpu.inst     0.989749                       # miss rate for ReadCleanReq accesses
system.l2.ReadCleanReq_miss_rate::total      0.989749                       # miss rate for ReadCleanReq accesses
system.l2.ReadSharedReq_miss_rate::cpu.data     0.978286                       # miss rate for ReadSharedReq accesses
system.l2.ReadSharedReq_miss_rate::total     0.978286                       # miss rate for ReadSharedReq accesses
system.l2.demand_miss_rate::cpu.inst         0.989749                       # miss rate for demand accesses
system.l2.demand_miss_rate::cpu.data         0.999265                       # miss rate for demand accesses
system.l2.demand_miss_rate::total            0.999264                       # miss rate for demand accesses
system.l2.overall_miss_rate::cpu.inst        0.989749                       # miss rate for overall accesses
system.l2.overall_miss_rate::cpu.data        0.999265                       # miss rate for overall accesses
system.l2.overall_miss_rate::total           0.999264                       # miss rate for overall accesses
system.l2.ReadExReq_avg_miss_latency::cpu.data 83097.615507                       # average ReadExReq miss latency
system.l2.ReadExReq_avg_miss_latency::total 83097.615507                       # average ReadExReq miss latency
system.l2.ReadCleanReq_avg_miss_latency::cpu.inst 83825.086306                       # average ReadCleanReq miss latency
system.l2.ReadCleanReq_avg_miss_latency::total 83825.086306                       # average ReadCleanReq miss latency
system.l2.ReadSharedReq_avg_miss_latency::cpu.data 86169.896871                       # average ReadSharedReq miss latency
system.l2.ReadSharedReq_avg_miss_latency::total 86169.896871                       # average ReadSharedReq miss latency
system.l2.demand_avg_miss_latency::cpu.inst 83825.086306                       # average overall miss latency
system.l2.demand_avg_miss_latency::cpu.data 83197.938321                       # average overall miss latency
system.l2.demand_avg_miss_latency::total 83197.977661                       # average overall miss latency
system.l2.overall_avg_miss_latency::cpu.inst 83825.086306                       # average overall miss latency
system.l2.overall_avg_miss_latency::cpu.data 83197.938321                       # average overall miss latency
system.l2.overall_avg_miss_latency::total 83197.977661                       # average overall miss latency
system.l2.blocked_cycles::no_mshrs                  0                       # number of cycles access was blocked
system.l2.blocked_cycles::no_targets                0                       # number of cycles access was blocked
system.l2.blocked::no_mshrs                         0                       # number of cycles access was blocked
system.l2.blocked::no_targets                       0                       # number of cycles access was blocked
system.l2.avg_blocked_cycles::no_mshrs            nan                       # average number of cycles each access was blocked
system.l2.avg_blocked_cycles::no_targets          nan                       # average number of cycles each access was blocked
system.l2.writebacks::writebacks             13814473                       # number of writebacks
system.l2.writebacks::total                  13814473                       # number of writebacks
system.l2.CleanEvict_mshr_misses::writebacks         4715                       # number of CleanEvict MSHR misses
system.l2.CleanEvict_mshr_misses::total          4715                       # number of CleanEvict MSHR misses
system.l2.ReadExReq_mshr_misses::cpu.data     13400248                       # number of ReadExReq MSHR misses
system.l2.ReadExReq_mshr_misses::total       13400248                       # number of ReadExReq MSHR misses
system.l2.ReadCleanReq_mshr_misses::cpu.inst          869                       # number of ReadCleanReq MSHR misses
system.l2.ReadCleanReq_mshr_misses::total          869                       # number of ReadCleanReq MSHR misses
system.l2.ReadSharedReq_mshr_misses::cpu.data       452345                       # number of ReadSharedReq MSHR misses
system.l2.ReadSharedReq_mshr_misses::total       452345                       # number of ReadSharedReq MSHR misses
system.l2.demand_mshr_misses::cpu.inst            869                       # number of demand (read+write) MSHR misses
system.l2.demand_mshr_misses::cpu.data       13852593                       # number of demand (read+write) MSHR misses
system.l2.demand_mshr_misses::total          13853462                       # number of demand (read+write) MSHR misses
system.l2.overall_mshr_misses::cpu.inst           869                       # number of overall MSHR misses
system.l2.overall_mshr_misses::cpu.data      13852593                       # number of overall MSHR misses
system.l2.overall_mshr_misses::total         13853462                       # number of overall MSHR misses
system.l2.ReadExReq_mshr_miss_latency::cpu.data 979526176000                       # number of ReadExReq MSHR miss cycles
system.l2.ReadExReq_mshr_miss_latency::total 979526176000                       # number of ReadExReq MSHR miss cycles
system.l2.ReadCleanReq_mshr_miss_latency::cpu.inst     64154000                       # number of ReadCleanReq MSHR miss cycles
system.l2.ReadCleanReq_mshr_miss_latency::total     64154000                       # number of ReadCleanReq MSHR miss cycles
system.l2.ReadSharedReq_mshr_miss_latency::cpu.data  34455072000                       # number of ReadSharedReq MSHR miss cycles
system.l2.ReadSharedReq_mshr_miss_latency::total  34455072000                       # number of ReadSharedReq MSHR miss cycles
system.l2.demand_mshr_miss_latency::cpu.inst     64154000                       # number of demand (read+write) MSHR miss cycles
system.l2.demand_mshr_miss_latency::cpu.data 1013981248000                       # number of demand (read+write) MSHR miss cycles
system.l2.demand_mshr_miss_latency::total 1014045402000                       # number of demand (read+write) MSHR miss cycles
system.l2.overall_mshr_miss_latency::cpu.inst     64154000                       # number of overall MSHR miss cycles
system.l2.overall_mshr_miss_latency::cpu.data 1013981248000                       # number of overall MSHR miss cycles
system.l2.overall_mshr_miss_latency::total 1014045402000                       # number of overall MSHR miss cycles
system.l2.CleanEvict_mshr_miss_rate::writebacks          inf                       # mshr miss rate for CleanEvict accesses
system.l2.CleanEvict_mshr_miss_rate::total          inf                       # mshr miss rate for CleanEvict accesses
system.l2.ReadExReq_mshr_miss_rate::cpu.data     0.999989                       # mshr miss rate for ReadExReq accesses
system.l2.ReadExReq_mshr_miss_rate::total     0.999989                       # mshr miss rate for ReadExReq accesses
system.l2.ReadCleanReq_mshr_miss_rate::cpu.inst     0.989749                       # mshr miss rate for ReadCleanReq accesses
system.l2.ReadCleanReq_mshr_miss_rate::total     0.989749                       # mshr miss rate for ReadCleanReq accesses
system.l2.ReadSharedReq_mshr_miss_rate::cpu.data     0.978286                       # mshr miss rate for ReadSharedReq accesses
system.l2.ReadSharedReq_mshr_miss_rate::total     0.978286                       # mshr miss rate for ReadSharedReq accesses
system.l2.demand_mshr_miss_rate::cpu.inst     0.989749                       # mshr miss rate for demand accesses
system.l2.demand_mshr_miss_rate::cpu.data     0.999265                       # mshr miss rate for demand accesses
system.l2.demand_mshr_miss_rate::total       0.999264                       # mshr miss rate for demand accesses
system.l2.overall_mshr_miss_rate::cpu.inst     0.989749                       # mshr miss rate for overall accesses
system.l2.overall_mshr_miss_rate::cpu.data     0.999265                       # mshr miss rate for overall accesses
system.l2.overall_mshr_miss_rate::total      0.999264                       # mshr miss rate for overall accesses
system.l2.ReadExReq_avg_mshr_miss_latency::cpu.data 73097.615507                       # average ReadExReq mshr miss latency
system.l2.ReadExReq_avg_mshr_miss_latency::total 73097.615507                       # average ReadExReq mshr miss latency
system.l2.ReadCleanReq_avg_mshr_miss_latency::cpu.inst 73825.086306                       # average ReadCleanReq mshr miss latency
system.l2.ReadCleanReq_avg_mshr_miss_latency::total 73825.086306                       # average ReadCleanReq mshr miss latency
system.l2.ReadSharedReq_avg_mshr_miss_latency::cpu.data 76169.896871                       # average ReadSharedReq mshr miss latency
system.l2.ReadSharedReq_avg_mshr_miss_latency::total 76169.896871                       # average ReadSharedReq mshr miss latency
system.l2.demand_avg_mshr_miss_latency::cpu.inst 73825.086306                       # average overall mshr miss latency
system.l2.demand_avg_mshr_miss_latency::cpu.data 73197.938321                       # average overall mshr miss latency
system.l2.demand_avg_mshr_miss_latency::total 73197.977661                       # average overall mshr miss latency
system.l2.overall_avg_mshr_miss_latency::cpu.inst 73825.086306                       # average overall mshr miss latency
system.l2.overall_avg_mshr_miss_latency::cpu.data 73197.938321                       # average overall mshr miss latency
system.l2.overall_avg_mshr_miss_latency::total 73197.977661                       # average overall mshr miss latency
system.membus.snoop_filter.tot_requests      27673064                       # Total number of requests made to the snoop filter.
system.membus.snoop_filter.hit_single_requests     13819602                       # Number of requests hitting in the snoop filter with a single holder of the requested data.
system.membus.snoop_filter.hit_multi_requests            0                       # Number of requests hitting in the snoop filter with multiple (>1) holders of the requested data.
system.membus.snoop_filter.tot_snoops               0                       # Total number of snoops made to the snoop filter.
system.membus.snoop_filter.hit_single_snoops            0                       # Number of snoops hitting in the snoop filter with a single holder of the requested data.
system.membus.snoop_filter.hit_multi_snoops            0                       # Number of snoops hitting in the snoop filter with multiple (>1) holders of the requested data.
system.membus.pwrStateResidencyTicks::UNDEFINED 2129833217500                       # Cumulative time (in ticks) in various power states
system.membus.trans_dist::ReadResp             453214                       # Transaction distribution
system.membus.trans_dist::WritebackDirty     13814473                       # Transaction distribution
system.membus.trans_dist::CleanEvict             5129                       # Transaction distribution
system.membus.trans_dist::ReadExReq          13400248                       # Transaction distribution
system.membus.trans_dist::ReadExResp         13400248                       # Transaction distribution
system.membus.trans_dist::ReadSharedReq        453214                       # Transaction distribution
system.membus.pkt_count_system.l2.mem_side::system.mem_ctrls.port     41526526                       # Packet count per connected master and slave (bytes)
system.membus.pkt_count_system.l2.mem_side::total     41526526                       # Packet count per connected master and slave (bytes)
system.membus.pkt_count::total               41526526                       # Packet count per connected master and slave (bytes)
system.membus.pkt_size_system.l2.mem_side::system.mem_ctrls.port    885373920                       # Cumulative packet size per connected master and slave (bytes)
system.membus.pkt_size_system.l2.mem_side::total    885373920                       # Cumulative packet size per connected master and slave (bytes)
system.membus.pkt_size::total               885373920                       # Cumulative packet size per connected master and slave (bytes)
system.membus.snoops                                0                       # Total snoops (count)
system.membus.snoopTraffic                          0                       # Total snoop traffic (bytes)
system.membus.snoop_fanout::samples          13853462                       # Request fanout histogram
system.membus.snoop_fanout::mean                    0                       # Request fanout histogram
system.membus.snoop_fanout::stdev                   0                       # Request fanout histogram
system.membus.snoop_fanout::underflows              0      0.00%      0.00% # Request fanout histogram
system.membus.snoop_fanout::0                13853462    100.00%    100.00% # Request fanout histogram
system.membus.snoop_fanout::1                       0      0.00%    100.00% # Request fanout histogram
system.membus.snoop_fanout::overflows               0      0.00%    100.00% # Request fanout histogram
system.membus.snoop_fanout::min_value               0                       # Request fanout histogram
system.membus.snoop_fanout::max_value               0                       # Request fanout histogram
system.membus.snoop_fanout::total            13853462                       # Request fanout histogram
system.membus.reqLayer2.occupancy         55302013000                       # Layer occupancy (ticks)
system.membus.reqLayer2.utilization               2.6                       # Layer utilization (%)
system.membus.respLayer1.occupancy        45228715500                       # Layer occupancy (ticks)
system.membus.respLayer1.utilization              2.1                       # Layer utilization (%)
system.tol2bus.snoop_filter.tot_requests     27722404                       # Total number of requests made to the snoop filter.
system.tol2bus.snoop_filter.hit_single_requests     13858745                       # Number of requests hitting in the snoop filter with a single holder of the requested data.
system.tol2bus.snoop_filter.hit_multi_requests            1                       # Number of requests hitting in the snoop filter with multiple (>1) holders of the requested data.
system.tol2bus.snoop_filter.tot_snoops           8508                       # Total number of snoops made to the snoop filter.
system.tol2bus.snoop_filter.hit_single_snoops         8507                       # Number of snoops hitting in the snoop filter with a single holder of the requested data.
system.tol2bus.snoop_filter.hit_multi_snoops            1                       # Number of snoops hitting in the snoop filter with multiple (>1) holders of the requested data.
system.tol2bus.pwrStateResidencyTicks::UNDEFINED 2129833217500                       # Cumulative time (in ticks) in various power states
system.tol2bus.trans_dist::ReadResp            463263                       # Transaction distribution
system.tol2bus.trans_dist::WritebackDirty     27658188                       # Transaction distribution
system.tol2bus.trans_dist::WritebackClean           60                       # Transaction distribution
system.tol2bus.trans_dist::CleanEvict           23892                       # Transaction distribution
system.tol2bus.trans_dist::ReadExReq         13400396                       # Transaction distribution
system.tol2bus.trans_dist::ReadExResp        13400396                       # Transaction distribution
system.tol2bus.trans_dist::ReadCleanReq           878                       # Transaction distribution
system.tol2bus.trans_dist::ReadSharedReq       462385                       # Transaction distribution
system.tol2bus.pkt_count_system.cpu.icache.mem_side::system.l2.cpu_side         1816                       # Packet count per connected master and slave (bytes)
system.tol2bus.pkt_count_system.cpu.dcache.mem_side::system.l2.cpu_side     41584247                       # Packet count per connected master and slave (bytes)
system.tol2bus.pkt_count::total              41586063                       # Packet count per connected master and slave (bytes)
system.tol2bus.pkt_size_system.cpu.icache.mem_side::system.l2.cpu_side        30016                       # Cumulative packet size per connected master and slave (bytes)
system.tol2bus.pkt_size_system.cpu.dcache.mem_side::system.l2.cpu_side    886607872                       # Cumulative packet size per connected master and slave (bytes)
system.tol2bus.pkt_size::total              886637888                       # Cumulative packet size per connected master and slave (bytes)
system.tol2bus.snoops                        13823395                       # Total snoops (count)
system.tol2bus.snoopTraffic                 442063136                       # Total snoop traffic (bytes)
system.tol2bus.snoop_fanout::samples         27687054                       # Request fanout histogram
system.tol2bus.snoop_fanout::mean            0.000307                       # Request fanout histogram
system.tol2bus.snoop_fanout::stdev           0.017531                       # Request fanout histogram
system.tol2bus.snoop_fanout::underflows             0      0.00%      0.00% # Request fanout histogram
system.tol2bus.snoop_fanout::0               27678545     99.97%     99.97% # Request fanout histogram
system.tol2bus.snoop_fanout::1                   8508      0.03%    100.00% # Request fanout histogram
system.tol2bus.snoop_fanout::2                      1      0.00%    100.00% # Request fanout histogram
system.tol2bus.snoop_fanout::3                      0      0.00%    100.00% # Request fanout histogram
system.tol2bus.snoop_fanout::4                      0      0.00%    100.00% # Request fanout histogram
system.tol2bus.snoop_fanout::overflows              0      0.00%    100.00% # Request fanout histogram
system.tol2bus.snoop_fanout::min_value              0                       # Request fanout histogram
system.tol2bus.snoop_fanout::max_value              2                       # Request fanout histogram
system.tol2bus.snoop_fanout::total           27687054                       # Request fanout histogram
system.tol2bus.reqLayer0.occupancy        20783089500                       # Layer occupancy (ticks)
system.tol2bus.reqLayer0.utilization              1.0                       # Layer utilization (%)
system.tol2bus.respLayer0.occupancy            878000                       # Layer occupancy (ticks)
system.tol2bus.respLayer0.utilization             0.0                       # Layer utilization (%)
system.tol2bus.respLayer1.occupancy       13862781000                       # Layer occupancy (ticks)
system.tol2bus.respLayer1.utilization             0.7                       # Layer utilization (%)

---------- End Simulation Statistics   ----------
