
---------- Begin Simulation Statistics ----------
sim_seconds                                  2.381513                       # Number of seconds simulated
sim_ticks                                2381513210500                       # Number of ticks simulated
final_tick                               2381513210500                       # Number of ticks from beginning of simulation (restored from checkpoints and never reset)
sim_freq                                 1000000000000                       # Frequency of simulated ticks
host_inst_rate                                 481005                       # Simulator instruction rate (inst/s)
host_op_rate                                   792087                       # Simulator op (including micro ops) rate (op/s)
host_tick_rate                             2291039991                       # Simulator tick rate (ticks/s)
host_mem_usage                                 670128                       # Number of bytes of host memory used
host_seconds                                  1039.49                       # Real time elapsed on the host
sim_insts                                   500000000                       # Number of instructions simulated
sim_ops                                     823366692                       # Number of ops (including micro ops) simulated
system.voltage_domain.voltage                       1                       # Voltage in Volts
system.clk_domain.clock                          1000                       # Clock period in ticks
system.mem_ctrls.pwrStateResidencyTicks::UNDEFINED 2381513210500                       # Cumulative time (in ticks) in various power states
system.mem_ctrls.bytes_read::cpu.inst          111648                       # Number of bytes read from this memory
system.mem_ctrls.bytes_read::cpu.data       533608160                       # Number of bytes read from this memory
system.mem_ctrls.bytes_read::total          533719808                       # Number of bytes read from this memory
system.mem_ctrls.bytes_inst_read::cpu.inst       111648                       # Number of instructions bytes read from this memory
system.mem_ctrls.bytes_inst_read::total        111648                       # Number of instructions bytes read from this memory
system.mem_ctrls.bytes_written::writebacks    532079008                       # Number of bytes written to this memory
system.mem_ctrls.bytes_written::total       532079008                       # Number of bytes written to this memory
system.mem_ctrls.num_reads::cpu.inst             3489                       # Number of read requests responded to by this memory
system.mem_ctrls.num_reads::cpu.data         16675255                       # Number of read requests responded to by this memory
system.mem_ctrls.num_reads::total            16678744                       # Number of read requests responded to by this memory
system.mem_ctrls.num_writes::writebacks      16627469                       # Number of write requests responded to by this memory
system.mem_ctrls.num_writes::total           16627469                       # Number of write requests responded to by this memory
system.mem_ctrls.bw_read::cpu.inst              46881                       # Total read bandwidth from this memory (bytes/s)
system.mem_ctrls.bw_read::cpu.data          224062650                       # Total read bandwidth from this memory (bytes/s)
system.mem_ctrls.bw_read::total             224109531                       # Total read bandwidth from this memory (bytes/s)
system.mem_ctrls.bw_inst_read::cpu.inst         46881                       # Instruction read bandwidth from this memory (bytes/s)
system.mem_ctrls.bw_inst_read::total            46881                       # Instruction read bandwidth from this memory (bytes/s)
system.mem_ctrls.bw_write::writebacks       223420557                       # Write bandwidth from this memory (bytes/s)
system.mem_ctrls.bw_write::total            223420557                       # Write bandwidth from this memory (bytes/s)
system.mem_ctrls.bw_total::writebacks       223420557                       # Total bandwidth to/from this memory (bytes/s)
system.mem_ctrls.bw_total::cpu.inst             46881                       # Total bandwidth to/from this memory (bytes/s)
system.mem_ctrls.bw_total::cpu.data         224062650                       # Total bandwidth to/from this memory (bytes/s)
system.mem_ctrls.bw_total::total            447530088                       # Total bandwidth to/from this memory (bytes/s)
system.mem_ctrls.readReqs                    16678744                       # Number of read requests accepted
system.mem_ctrls.writeReqs                   16627469                       # Number of write requests accepted
system.mem_ctrls.readBursts                  16678744                       # Number of DRAM read bursts, including those serviced by the write queue
system.mem_ctrls.writeBursts                 16627469                       # Number of DRAM write bursts, including those merged in the write queue
system.mem_ctrls.bytesReadDRAM             1067417472                       # Total number of bytes read from DRAM
system.mem_ctrls.bytesReadWrQ                   22144                       # Total number of bytes read from write queue
system.mem_ctrls.bytesWritten               534620928                       # Total number of bytes written to DRAM
system.mem_ctrls.bytesReadSys               533719808                       # Total read bytes from the system interface side
system.mem_ctrls.bytesWrittenSys            532079008                       # Total written bytes from the system interface side
system.mem_ctrls.servicedByWrQ                    346                       # Number of DRAM read bursts serviced by the write queue
system.mem_ctrls.mergedWrBursts               8273990                       # Number of DRAM write bursts merged with an existing one
system.mem_ctrls.neitherReadNorWriteReqs            0                       # Number of requests that are neither read nor write
system.mem_ctrls.perBankRdBursts::0           1041883                       # Per bank write bursts
system.mem_ctrls.perBankRdBursts::1           1041633                       # Per bank write bursts
system.mem_ctrls.perBankRdBursts::2           1041963                       # Per bank write bursts
system.mem_ctrls.perBankRdBursts::3           1042964                       # Per bank write bursts
system.mem_ctrls.perBankRdBursts::4           1044557                       # Per bank write bursts
system.mem_ctrls.perBankRdBursts::5           1042891                       # Per bank write bursts
system.mem_ctrls.perBankRdBursts::6           1041899                       # Per bank write bursts
system.mem_ctrls.perBankRdBursts::7           1042186                       # Per bank write bursts
system.mem_ctrls.perBankRdBursts::8           1041434                       # Per bank write bursts
system.mem_ctrls.perBankRdBursts::9           1041952                       # Per bank write bursts
system.mem_ctrls.perBankRdBursts::10          1042194                       # Per bank write bursts
system.mem_ctrls.perBankRdBursts::11          1042752                       # Per bank write bursts
system.mem_ctrls.perBankRdBursts::12          1042720                       # Per bank write bursts
system.mem_ctrls.perBankRdBursts::13          1042662                       # Per bank write bursts
system.mem_ctrls.perBankRdBursts::14          1042381                       # Per bank write bursts
system.mem_ctrls.perBankRdBursts::15          1042327                       # Per bank write bursts
system.mem_ctrls.perBankWrBursts::0            521900                       # Per bank write bursts
system.mem_ctrls.perBankWrBursts::1            521722                       # Per bank write bursts
system.mem_ctrls.perBankWrBursts::2            521995                       # Per bank write bursts
system.mem_ctrls.perBankWrBursts::3            522574                       # Per bank write bursts
system.mem_ctrls.perBankWrBursts::4            522499                       # Per bank write bursts
system.mem_ctrls.perBankWrBursts::5            522394                       # Per bank write bursts
system.mem_ctrls.perBankWrBursts::6            521860                       # Per bank write bursts
system.mem_ctrls.perBankWrBursts::7            522110                       # Per bank write bursts
system.mem_ctrls.perBankWrBursts::8            521739                       # Per bank write bursts
system.mem_ctrls.perBankWrBursts::9            521951                       # Per bank write bursts
system.mem_ctrls.perBankWrBursts::10           522007                       # Per bank write bursts
system.mem_ctrls.perBankWrBursts::11           522105                       # Per bank write bursts
system.mem_ctrls.perBankWrBursts::12           522210                       # Per bank write bursts
system.mem_ctrls.perBankWrBursts::13           522352                       # Per bank write bursts
system.mem_ctrls.perBankWrBursts::14           522054                       # Per bank write bursts
system.mem_ctrls.perBankWrBursts::15           521980                       # Per bank write bursts
system.mem_ctrls.numRdRetry                         0                       # Number of times read queue was full causing retry
system.mem_ctrls.numWrRetry                         0                       # Number of times write queue was full causing retry
system.mem_ctrls.totGap                  2381500239500                       # Total gap between requests
system.mem_ctrls.readPktSize::0                     0                       # Read request sizes (log2)
system.mem_ctrls.readPktSize::1                     0                       # Read request sizes (log2)
system.mem_ctrls.readPktSize::2                     0                       # Read request sizes (log2)
system.mem_ctrls.readPktSize::3                     0                       # Read request sizes (log2)
system.mem_ctrls.readPktSize::4                     0                       # Read request sizes (log2)
system.mem_ctrls.readPktSize::5              16678744                       # Read request sizes (log2)
system.mem_ctrls.readPktSize::6                     0                       # Read request sizes (log2)
system.mem_ctrls.writePktSize::0                    0                       # Write request sizes (log2)
system.mem_ctrls.writePktSize::1                    0                       # Write request sizes (log2)
system.mem_ctrls.writePktSize::2                    0                       # Write request sizes (log2)
system.mem_ctrls.writePktSize::3                    0                       # Write request sizes (log2)
system.mem_ctrls.writePktSize::4                    0                       # Write request sizes (log2)
system.mem_ctrls.writePktSize::5             16627469                       # Write request sizes (log2)
system.mem_ctrls.writePktSize::6                    0                       # Write request sizes (log2)
system.mem_ctrls.rdQLenPdf::0                16678397                       # What read queue length does an incoming req see
system.mem_ctrls.rdQLenPdf::1                       1                       # What read queue length does an incoming req see
system.mem_ctrls.rdQLenPdf::2                       0                       # What read queue length does an incoming req see
system.mem_ctrls.rdQLenPdf::3                       0                       # What read queue length does an incoming req see
system.mem_ctrls.rdQLenPdf::4                       0                       # What read queue length does an incoming req see
system.mem_ctrls.rdQLenPdf::5                       0                       # What read queue length does an incoming req see
system.mem_ctrls.rdQLenPdf::6                       0                       # What read queue length does an incoming req see
system.mem_ctrls.rdQLenPdf::7                       0                       # What read queue length does an incoming req see
system.mem_ctrls.rdQLenPdf::8                       0                       # What read queue length does an incoming req see
system.mem_ctrls.rdQLenPdf::9                       0                       # What read queue length does an incoming req see
system.mem_ctrls.rdQLenPdf::10                      0                       # What read queue length does an incoming req see
system.mem_ctrls.rdQLenPdf::11                      0                       # What read queue length does an incoming req see
system.mem_ctrls.rdQLenPdf::12                      0                       # What read queue length does an incoming req see
system.mem_ctrls.rdQLenPdf::13                      0                       # What read queue length does an incoming req see
system.mem_ctrls.rdQLenPdf::14                      0                       # What read queue length does an incoming req see
system.mem_ctrls.rdQLenPdf::15                      0                       # What read queue length does an incoming req see
system.mem_ctrls.rdQLenPdf::16                      0                       # What read queue length does an incoming req see
system.mem_ctrls.rdQLenPdf::17                      0                       # What read queue length does an incoming req see
system.mem_ctrls.rdQLenPdf::18                      0                       # What read queue length does an incoming req see
system.mem_ctrls.rdQLenPdf::19                      0                       # What read queue length does an incoming req see
system.mem_ctrls.rdQLenPdf::20                      0                       # What read queue length does an incoming req see
system.mem_ctrls.rdQLenPdf::21                      0                       # What read queue length does an incoming req see
system.mem_ctrls.rdQLenPdf::22                      0                       # What read queue length does an incoming req see
system.mem_ctrls.rdQLenPdf::23                      0                       # What read queue length does an incoming req see
system.mem_ctrls.rdQLenPdf::24                      0                       # What read queue length does an incoming req see
system.mem_ctrls.rdQLenPdf::25                      0                       # What read queue length does an incoming req see
system.mem_ctrls.rdQLenPdf::26                      0                       # What read queue length does an incoming req see
system.mem_ctrls.rdQLenPdf::27                      0                       # What read queue length does an incoming req see
system.mem_ctrls.rdQLenPdf::28                      0                       # What read queue length does an incoming req see
system.mem_ctrls.rdQLenPdf::29                      0                       # What read queue length does an incoming req see
system.mem_ctrls.rdQLenPdf::30                      0                       # What read queue length does an incoming req see
system.mem_ctrls.rdQLenPdf::31                      0                       # What read queue length does an incoming req see
system.mem_ctrls.wrQLenPdf::0                       1                       # What write queue length does an incoming req see
system.mem_ctrls.wrQLenPdf::1                       1                       # What write queue length does an incoming req see
system.mem_ctrls.wrQLenPdf::2                       1                       # What write queue length does an incoming req see
system.mem_ctrls.wrQLenPdf::3                       1                       # What write queue length does an incoming req see
system.mem_ctrls.wrQLenPdf::4                       1                       # What write queue length does an incoming req see
system.mem_ctrls.wrQLenPdf::5                       1                       # What write queue length does an incoming req see
system.mem_ctrls.wrQLenPdf::6                       1                       # What write queue length does an incoming req see
system.mem_ctrls.wrQLenPdf::7                       1                       # What write queue length does an incoming req see
system.mem_ctrls.wrQLenPdf::8                       1                       # What write queue length does an incoming req see
system.mem_ctrls.wrQLenPdf::9                       1                       # What write queue length does an incoming req see
system.mem_ctrls.wrQLenPdf::10                      1                       # What write queue length does an incoming req see
system.mem_ctrls.wrQLenPdf::11                      1                       # What write queue length does an incoming req see
system.mem_ctrls.wrQLenPdf::12                      1                       # What write queue length does an incoming req see
system.mem_ctrls.wrQLenPdf::13                      1                       # What write queue length does an incoming req see
system.mem_ctrls.wrQLenPdf::14                      1                       # What write queue length does an incoming req see
system.mem_ctrls.wrQLenPdf::15                   3990                       # What write queue length does an incoming req see
system.mem_ctrls.wrQLenPdf::16                   4783                       # What write queue length does an incoming req see
system.mem_ctrls.wrQLenPdf::17                 521487                       # What write queue length does an incoming req see
system.mem_ctrls.wrQLenPdf::18                 521538                       # What write queue length does an incoming req see
system.mem_ctrls.wrQLenPdf::19                 521537                       # What write queue length does an incoming req see
system.mem_ctrls.wrQLenPdf::20                 521538                       # What write queue length does an incoming req see
system.mem_ctrls.wrQLenPdf::21                 521537                       # What write queue length does an incoming req see
system.mem_ctrls.wrQLenPdf::22                 521540                       # What write queue length does an incoming req see
system.mem_ctrls.wrQLenPdf::23                 521540                       # What write queue length does an incoming req see
system.mem_ctrls.wrQLenPdf::24                 521538                       # What write queue length does an incoming req see
system.mem_ctrls.wrQLenPdf::25                 521538                       # What write queue length does an incoming req see
system.mem_ctrls.wrQLenPdf::26                 521542                       # What write queue length does an incoming req see
system.mem_ctrls.wrQLenPdf::27                 521536                       # What write queue length does an incoming req see
system.mem_ctrls.wrQLenPdf::28                 521539                       # What write queue length does an incoming req see
system.mem_ctrls.wrQLenPdf::29                 521667                       # What write queue length does an incoming req see
system.mem_ctrls.wrQLenPdf::30                 521541                       # What write queue length does an incoming req see
system.mem_ctrls.wrQLenPdf::31                 521536                       # What write queue length does an incoming req see
system.mem_ctrls.wrQLenPdf::32                 521536                       # What write queue length does an incoming req see
system.mem_ctrls.wrQLenPdf::33                      1                       # What write queue length does an incoming req see
system.mem_ctrls.wrQLenPdf::34                      0                       # What write queue length does an incoming req see
system.mem_ctrls.wrQLenPdf::35                      0                       # What write queue length does an incoming req see
system.mem_ctrls.wrQLenPdf::36                      0                       # What write queue length does an incoming req see
system.mem_ctrls.wrQLenPdf::37                      0                       # What write queue length does an incoming req see
system.mem_ctrls.wrQLenPdf::38                      0                       # What write queue length does an incoming req see
system.mem_ctrls.wrQLenPdf::39                      0                       # What write queue length does an incoming req see
system.mem_ctrls.wrQLenPdf::40                      0                       # What write queue length does an incoming req see
system.mem_ctrls.wrQLenPdf::41                      0                       # What write queue length does an incoming req see
system.mem_ctrls.wrQLenPdf::42                      0                       # What write queue length does an incoming req see
system.mem_ctrls.wrQLenPdf::43                      0                       # What write queue length does an incoming req see
system.mem_ctrls.wrQLenPdf::44                      0                       # What write queue length does an incoming req see
system.mem_ctrls.wrQLenPdf::45                      0                       # What write queue length does an incoming req see
system.mem_ctrls.wrQLenPdf::46                      0                       # What write queue length does an incoming req see
system.mem_ctrls.wrQLenPdf::47                      0                       # What write queue length does an incoming req see
system.mem_ctrls.wrQLenPdf::48                      0                       # What write queue length does an incoming req see
system.mem_ctrls.wrQLenPdf::49                      0                       # What write queue length does an incoming req see
system.mem_ctrls.wrQLenPdf::50                      0                       # What write queue length does an incoming req see
system.mem_ctrls.wrQLenPdf::51                      0                       # What write queue length does an incoming req see
system.mem_ctrls.wrQLenPdf::52                      0                       # What write queue length does an incoming req see
system.mem_ctrls.wrQLenPdf::53                      0                       # What write queue length does an incoming req see
system.mem_ctrls.wrQLenPdf::54                      0                       # What write queue length does an incoming req see
system.mem_ctrls.wrQLenPdf::55                      0                       # What write queue length does an incoming req see
system.mem_ctrls.wrQLenPdf::56                      0                       # What write queue length does an incoming req see
system.mem_ctrls.wrQLenPdf::57                      0                       # What write queue length does an incoming req see
system.mem_ctrls.wrQLenPdf::58                      0                       # What write queue length does an incoming req see
system.mem_ctrls.wrQLenPdf::59                      0                       # What write queue length does an incoming req see
system.mem_ctrls.wrQLenPdf::60                      0                       # What write queue length does an incoming req see
system.mem_ctrls.wrQLenPdf::61                      0                       # What write queue length does an incoming req see
system.mem_ctrls.wrQLenPdf::62                      0                       # What write queue length does an incoming req see
system.mem_ctrls.wrQLenPdf::63                      0                       # What write queue length does an incoming req see
system.mem_ctrls.bytesPerActivate::samples      2014386                       # Bytes accessed per row activation
system.mem_ctrls.bytesPerActivate::mean    795.298617                       # Bytes accessed per row activation
system.mem_ctrls.bytesPerActivate::gmean   616.890947                       # Bytes accessed per row activation
system.mem_ctrls.bytesPerActivate::stdev   355.301289                       # Bytes accessed per row activation
system.mem_ctrls.bytesPerActivate::0-127       218742     10.86%     10.86% # Bytes accessed per row activation
system.mem_ctrls.bytesPerActivate::128-255        79553      3.95%     14.81% # Bytes accessed per row activation
system.mem_ctrls.bytesPerActivate::256-383        73063      3.63%     18.44% # Bytes accessed per row activation
system.mem_ctrls.bytesPerActivate::384-511        73163      3.63%     22.07% # Bytes accessed per row activation
system.mem_ctrls.bytesPerActivate::512-639        76598      3.80%     25.87% # Bytes accessed per row activation
system.mem_ctrls.bytesPerActivate::640-767        57589      2.86%     28.73% # Bytes accessed per row activation
system.mem_ctrls.bytesPerActivate::768-895        78974      3.92%     32.65% # Bytes accessed per row activation
system.mem_ctrls.bytesPerActivate::896-1023        80175      3.98%     36.63% # Bytes accessed per row activation
system.mem_ctrls.bytesPerActivate::1024-1151      1276529     63.37%    100.00% # Bytes accessed per row activation
system.mem_ctrls.bytesPerActivate::total      2014386                       # Bytes accessed per row activation
system.mem_ctrls.rdPerTurnAround::samples       521536                       # Reads before turning the bus around for writes
system.mem_ctrls.rdPerTurnAround::mean      31.979355                       # Reads before turning the bus around for writes
system.mem_ctrls.rdPerTurnAround::gmean     31.897131                       # Reads before turning the bus around for writes
system.mem_ctrls.rdPerTurnAround::stdev     20.057395                       # Reads before turning the bus around for writes
system.mem_ctrls.rdPerTurnAround::0-511        521529    100.00%    100.00% # Reads before turning the bus around for writes
system.mem_ctrls.rdPerTurnAround::512-1023            1      0.00%    100.00% # Reads before turning the bus around for writes
system.mem_ctrls.rdPerTurnAround::1024-1535            1      0.00%    100.00% # Reads before turning the bus around for writes
system.mem_ctrls.rdPerTurnAround::2048-2559            1      0.00%    100.00% # Reads before turning the bus around for writes
system.mem_ctrls.rdPerTurnAround::2560-3071            1      0.00%    100.00% # Reads before turning the bus around for writes
system.mem_ctrls.rdPerTurnAround::4608-5119            1      0.00%    100.00% # Reads before turning the bus around for writes
system.mem_ctrls.rdPerTurnAround::7168-7679            1      0.00%    100.00% # Reads before turning the bus around for writes
system.mem_ctrls.rdPerTurnAround::10752-11263            1      0.00%    100.00% # Reads before turning the bus around for writes
system.mem_ctrls.rdPerTurnAround::total        521536                       # Reads before turning the bus around for writes
system.mem_ctrls.wrPerTurnAround::samples       521536                       # Writes before turning the bus around for reads
system.mem_ctrls.wrPerTurnAround::mean      16.017019                       # Writes before turning the bus around for reads
system.mem_ctrls.wrPerTurnAround::gmean     16.016071                       # Writes before turning the bus around for reads
system.mem_ctrls.wrPerTurnAround::stdev      0.181217                       # Writes before turning the bus around for reads
system.mem_ctrls.wrPerTurnAround::16           516754     99.08%     99.08% # Writes before turning the bus around for reads
system.mem_ctrls.wrPerTurnAround::17              792      0.15%     99.23% # Writes before turning the bus around for reads
system.mem_ctrls.wrPerTurnAround::18             3889      0.75%     99.98% # Writes before turning the bus around for reads
system.mem_ctrls.wrPerTurnAround::19               98      0.02%    100.00% # Writes before turning the bus around for reads
system.mem_ctrls.wrPerTurnAround::20                3      0.00%    100.00% # Writes before turning the bus around for reads
system.mem_ctrls.wrPerTurnAround::total        521536                       # Writes before turning the bus around for reads
system.mem_ctrls.totQLat                 247730397000                       # Total ticks spent queuing
system.mem_ctrls.totMemAccLat            560450359500                       # Total ticks spent from burst creation until serviced by the DRAM
system.mem_ctrls.totBusLat                83391990000                       # Total ticks spent in databus transfers
system.mem_ctrls.avgQLat                     14853.37                       # Average queueing delay per DRAM burst
system.mem_ctrls.avgBusLat                    5000.00                       # Average bus latency per DRAM burst
system.mem_ctrls.avgMemAccLat                33603.37                       # Average memory access latency per DRAM burst
system.mem_ctrls.avgRdBW                       448.21                       # Average DRAM read bandwidth in MiByte/s
system.mem_ctrls.avgWrBW                       224.49                       # Average achieved write bandwidth in MiByte/s
system.mem_ctrls.avgRdBWSys                    224.11                       # Average system read bandwidth in MiByte/s
system.mem_ctrls.avgWrBWSys                    223.42                       # Average system write bandwidth in MiByte/s
system.mem_ctrls.peakBW                      12800.00                       # Theoretical peak bandwidth in MiByte/s
system.mem_ctrls.busUtil                         5.26                       # Data bus utilization in percentage
system.mem_ctrls.busUtilRead                     3.50                       # Data bus utilization in percentage for reads
system.mem_ctrls.busUtilWrite                    1.75                       # Data bus utilization in percentage for writes
system.mem_ctrls.avgRdQLen                       1.00                       # Average read queue length when enqueuing
system.mem_ctrls.avgWrQLen                      25.35                       # Average write queue length when enqueuing
system.mem_ctrls.readRowHits                 15309159                       # Number of row buffer hits during reads
system.mem_ctrls.writeRowHits                 7708305                       # Number of row buffer hits during writes
system.mem_ctrls.readRowHitRate                 91.79                       # Row buffer hit rate for reads
system.mem_ctrls.writeRowHitRate                92.28                       # Row buffer hit rate for writes
system.mem_ctrls.avgGap                      71503.18                       # Average gap between requests
system.mem_ctrls.pageHitRate                    91.95                       # Row buffer hit rate, read and write combined
system.mem_ctrls_0.actEnergy               7205323860                       # Energy for activate commands per rank (pJ)
system.mem_ctrls_0.preEnergy               3829720455                       # Energy for precharge commands per rank (pJ)
system.mem_ctrls_0.readEnergy             59547428640                       # Energy for read commands per rank (pJ)
system.mem_ctrls_0.writeEnergy            21804221880                       # Energy for write commands per rank (pJ)
system.mem_ctrls_0.refreshEnergy         115671560160.000031                       # Energy for refresh commands per rank (pJ)
system.mem_ctrls_0.actBackEnergy         146792848410                       # Energy for active background per rank (pJ)
system.mem_ctrls_0.preBackEnergy           8963900640                       # Energy for precharge background per rank (pJ)
system.mem_ctrls_0.actPowerDownEnergy    301848273180                       # Energy for active power-down per rank (pJ)
system.mem_ctrls_0.prePowerDownEnergy     98398159680                       # Energy for precharge power-down per rank (pJ)
system.mem_ctrls_0.selfRefreshEnergy     283718993925                       # Energy for self refresh per rank (pJ)
system.mem_ctrls_0.totalEnergy           1047809540010                       # Total energy per rank (pJ)
system.mem_ctrls_0.averagePower            439.976367                       # Core power per rank (mW)
system.mem_ctrls_0.totalIdleTime         2036178174750                       # Total Idle time Per DRAM Rank
system.mem_ctrls_0.memoryStateTime::IDLE  10090932250                       # Time in different power states
system.mem_ctrls_0.memoryStateTime::REF   49110590000                       # Time in different power states
system.mem_ctrls_0.memoryStateTime::SREF 1117998120750                       # Time in different power states
system.mem_ctrls_0.memoryStateTime::PRE_PDN 256245121750                       # Time in different power states
system.mem_ctrls_0.memoryStateTime::ACT  286117744750                       # Time in different power states
system.mem_ctrls_0.memoryStateTime::ACT_PDN 661950701000                       # Time in different power states
system.mem_ctrls_1.actEnergy               7177392180                       # Energy for activate commands per rank (pJ)
system.mem_ctrls_1.preEnergy               3814874415                       # Energy for precharge commands per rank (pJ)
system.mem_ctrls_1.readEnergy             59536333080                       # Energy for read commands per rank (pJ)
system.mem_ctrls_1.writeEnergy            21800797560                       # Energy for write commands per rank (pJ)
system.mem_ctrls_1.refreshEnergy         113556583920.000031                       # Energy for refresh commands per rank (pJ)
system.mem_ctrls_1.actBackEnergy         146544916650                       # Energy for active background per rank (pJ)
system.mem_ctrls_1.preBackEnergy           8846974080                       # Energy for precharge background per rank (pJ)
system.mem_ctrls_1.actPowerDownEnergy    297231759960                       # Energy for active power-down per rank (pJ)
system.mem_ctrls_1.prePowerDownEnergy     94944359040                       # Energy for precharge power-down per rank (pJ)
system.mem_ctrls_1.selfRefreshEnergy     287990190945                       # Energy for self refresh per rank (pJ)
system.mem_ctrls_1.totalEnergy           1041468384930                       # Total energy per rank (pJ)
system.mem_ctrls_1.averagePower            437.313710                       # Core power per rank (mW)
system.mem_ctrls_1.totalIdleTime         2037050732000                       # Total Idle time Per DRAM Rank
system.mem_ctrls_1.memoryStateTime::IDLE   9843823250                       # Time in different power states
system.mem_ctrls_1.memoryStateTime::REF   48209972000                       # Time in different power states
system.mem_ctrls_1.memoryStateTime::SREF 1137975372000                       # Time in different power states
system.mem_ctrls_1.memoryStateTime::PRE_PDN 247250780750                       # Time in different power states
system.mem_ctrls_1.memoryStateTime::ACT  286406347500                       # Time in different power states
system.mem_ctrls_1.memoryStateTime::ACT_PDN 651826915000                       # Time in different power states
system.pwrStateResidencyTicks::UNDEFINED 2381513210500                       # Cumulative time (in ticks) in various power states
system.cpu_voltage_domain.voltage                   1                       # Voltage in Volts
system.cpu_clk_domain.clock                       500                       # Clock period in ticks
system.cpu.dtb.walker.pwrStateResidencyTicks::UNDEFINED 2381513210500                       # Cumulative time (in ticks) in various power states
system.cpu.apic_clk_domain.clock                 8000                       # Clock period in ticks
system.cpu.interrupts.pwrStateResidencyTicks::UNDEFINED 2381513210500                       # Cumulative time (in ticks) in various power states
system.cpu.itb.walker.pwrStateResidencyTicks::UNDEFINED 2381513210500                       # Cumulative time (in ticks) in various power states
system.cpu.workload.num_syscalls                  196                       # Number of system calls
system.cpu.pwrStateResidencyTicks::ON    2381513210500                       # Cumulative time (in ticks) in various power states
system.cpu.numCycles                       4763026421                       # number of cpu cycles simulated
system.cpu.numWorkItemsStarted                      0                       # number of work items this cpu started
system.cpu.numWorkItemsCompleted                    0                       # number of work items this cpu completed
system.cpu.committedInsts                   500000000                       # Number of instructions committed
system.cpu.committedOps                     823366692                       # Number of ops (including micro ops) committed
system.cpu.num_int_alu_accesses             821415783                       # Number of integer alu accesses
system.cpu.num_fp_alu_accesses               66619246                       # Number of float alu accesses
system.cpu.num_func_calls                     5652773                       # number of times a function call or return occured
system.cpu.num_conditional_control_insts     57208853                       # number of instructions that are conditional controls
system.cpu.num_int_insts                    821415783                       # number of integer instructions
system.cpu.num_fp_insts                      66619246                       # number of float instructions
system.cpu.num_int_register_reads          1637209917                       # number of times the integer registers were read
system.cpu.num_int_register_writes          639871082                       # number of times the integer registers were written
system.cpu.num_fp_register_reads             66766836                       # number of times the floating registers were read
system.cpu.num_fp_register_writes              208042                       # number of times the floating registers were written
system.cpu.num_cc_register_reads            319714243                       # number of times the CC registers were read
system.cpu.num_cc_register_writes           287984022                       # number of times the CC registers were written
system.cpu.num_mem_refs                     271673939                       # number of memory refs
system.cpu.num_load_insts                   157213791                       # Number of load instructions
system.cpu.num_store_insts                  114460148                       # Number of store instructions
system.cpu.num_idle_cycles                          0                       # Number of idle cycles
system.cpu.num_busy_cycles                 4763026421                       # Number of busy cycles
system.cpu.not_idle_fraction                        1                       # Percentage of non-idle cycles
system.cpu.idle_fraction                            0                       # Percentage of idle cycles
system.cpu.Branches                          69678400                       # Number of branches fetched
system.cpu.op_class::No_OpClass                202234      0.02%      0.02% # Class of executed instruction
system.cpu.op_class::IntAlu                 550028817     66.80%     66.83% # Class of executed instruction
system.cpu.op_class::IntMult                   125092      0.02%     66.84% # Class of executed instruction
system.cpu.op_class::IntDiv                   1153479      0.14%     66.98% # Class of executed instruction
system.cpu.op_class::FloatAdd                  183131      0.02%     67.00% # Class of executed instruction
system.cpu.op_class::FloatCmp                       0      0.00%     67.00% # Class of executed instruction
system.cpu.op_class::FloatCvt                       0      0.00%     67.00% # Class of executed instruction
system.cpu.op_class::FloatMult                      0      0.00%     67.00% # Class of executed instruction
system.cpu.op_class::FloatDiv                       0      0.00%     67.00% # Class of executed instruction
system.cpu.op_class::FloatSqrt                      0      0.00%     67.00% # Class of executed instruction
system.cpu.op_class::SimdAdd                        0      0.00%     67.00% # Class of executed instruction
system.cpu.op_class::SimdAddAcc                     0      0.00%     67.00% # Class of executed instruction
system.cpu.op_class::SimdAlu                        0      0.00%     67.00% # Class of executed instruction
system.cpu.op_class::SimdCmp                        0      0.00%     67.00% # Class of executed instruction
system.cpu.op_class::SimdCvt                        0      0.00%     67.00% # Class of executed instruction
system.cpu.op_class::SimdMisc                       0      0.00%     67.00% # Class of executed instruction
system.cpu.op_class::SimdMult                       0      0.00%     67.00% # Class of executed instruction
system.cpu.op_class::SimdMultAcc                    0      0.00%     67.00% # Class of executed instruction
system.cpu.op_class::SimdShift                      0      0.00%     67.00% # Class of executed instruction
system.cpu.op_class::SimdShiftAcc                   0      0.00%     67.00% # Class of executed instruction
system.cpu.op_class::SimdSqrt                       0      0.00%     67.00% # Class of executed instruction
system.cpu.op_class::SimdFloatAdd                   0      0.00%     67.00% # Class of executed instruction
system.cpu.op_class::SimdFloatAlu                   0      0.00%     67.00% # Class of executed instruction
system.cpu.op_class::SimdFloatCmp                   0      0.00%     67.00% # Class of executed instruction
system.cpu.op_class::SimdFloatCvt                   0      0.00%     67.00% # Class of executed instruction
system.cpu.op_class::SimdFloatDiv                   0      0.00%     67.00% # Class of executed instruction
system.cpu.op_class::SimdFloatMisc                  0      0.00%     67.00% # Class of executed instruction
system.cpu.op_class::SimdFloatMult                  0      0.00%     67.00% # Class of executed instruction
system.cpu.op_class::SimdFloatMultAcc               0      0.00%     67.00% # Class of executed instruction
system.cpu.op_class::SimdFloatSqrt                  0      0.00%     67.00% # Class of executed instruction
system.cpu.op_class::MemRead                157213791     19.09%     86.10% # Class of executed instruction
system.cpu.op_class::MemWrite               114460148     13.90%    100.00% # Class of executed instruction
system.cpu.op_class::IprAccess                      0      0.00%    100.00% # Class of executed instruction
system.cpu.op_class::InstPrefetch                   0      0.00%    100.00% # Class of executed instruction
system.cpu.op_class::total                  823366692                       # Class of executed instruction
system.cpu.dcache.tags.pwrStateResidencyTicks::UNDEFINED 2381513210500                       # Cumulative time (in ticks) in various power states
system.cpu.dcache.tags.replacements          16796278                       # number of replacements
system.cpu.dcache.tags.tagsinuse          2047.582150                       # Cycle average of tags in use
system.cpu.dcache.tags.total_refs           254876230                       # Total number of references to valid blocks.
system.cpu.dcache.tags.sampled_refs          16798326                       # Sample count of references to valid blocks.
system.cpu.dcache.tags.avg_refs             15.172716                       # Average number of references to valid blocks.
system.cpu.dcache.tags.warmup_cycle        4335657500                       # Cycle when the warmup percentage was hit.
system.cpu.dcache.tags.occ_blocks::cpu.data  2047.582150                       # Average occupied blocks per requestor
system.cpu.dcache.tags.occ_percent::cpu.data     0.999796                       # Average percentage of cache occupancy
system.cpu.dcache.tags.occ_percent::total     0.999796                       # Average percentage of cache occupancy
system.cpu.dcache.tags.occ_task_id_blocks::1024         2048                       # Occupied blocks per task id
system.cpu.dcache.tags.age_task_id_blocks_1024::0            2                       # Occupied blocks per task id
system.cpu.dcache.tags.age_task_id_blocks_1024::1           45                       # Occupied blocks per task id
system.cpu.dcache.tags.age_task_id_blocks_1024::2          175                       # Occupied blocks per task id
system.cpu.dcache.tags.age_task_id_blocks_1024::3          864                       # Occupied blocks per task id
system.cpu.dcache.tags.age_task_id_blocks_1024::4          962                       # Occupied blocks per task id
system.cpu.dcache.tags.occ_task_id_percent::1024            1                       # Percentage of cache occupancy per task id
system.cpu.dcache.tags.tag_accesses        1103496550                       # Number of tag accesses
system.cpu.dcache.tags.data_accesses       1103496550                       # Number of data accesses
system.cpu.dcache.pwrStateResidencyTicks::UNDEFINED 2381513210500                       # Cumulative time (in ticks) in various power states
system.cpu.dcache.ReadReq_hits::cpu.data    157080233                       # number of ReadReq hits
system.cpu.dcache.ReadReq_hits::total       157080233                       # number of ReadReq hits
system.cpu.dcache.WriteReq_hits::cpu.data     97795997                       # number of WriteReq hits
system.cpu.dcache.WriteReq_hits::total       97795997                       # number of WriteReq hits
system.cpu.dcache.demand_hits::cpu.data     254876230                       # number of demand (read+write) hits
system.cpu.dcache.demand_hits::total        254876230                       # number of demand (read+write) hits
system.cpu.dcache.overall_hits::cpu.data    254876230                       # number of overall hits
system.cpu.dcache.overall_hits::total       254876230                       # number of overall hits
system.cpu.dcache.ReadReq_misses::cpu.data       134162                       # number of ReadReq misses
system.cpu.dcache.ReadReq_misses::total        134162                       # number of ReadReq misses
system.cpu.dcache.WriteReq_misses::cpu.data     16664164                       # number of WriteReq misses
system.cpu.dcache.WriteReq_misses::total     16664164                       # number of WriteReq misses
system.cpu.dcache.demand_misses::cpu.data     16798326                       # number of demand (read+write) misses
system.cpu.dcache.demand_misses::total       16798326                       # number of demand (read+write) misses
system.cpu.dcache.overall_misses::cpu.data     16798326                       # number of overall misses
system.cpu.dcache.overall_misses::total      16798326                       # number of overall misses
system.cpu.dcache.ReadReq_miss_latency::cpu.data  26687170500                       # number of ReadReq miss cycles
system.cpu.dcache.ReadReq_miss_latency::total  26687170500                       # number of ReadReq miss cycles
system.cpu.dcache.WriteReq_miss_latency::cpu.data 1423317838500                       # number of WriteReq miss cycles
system.cpu.dcache.WriteReq_miss_latency::total 1423317838500                       # number of WriteReq miss cycles
system.cpu.dcache.demand_miss_latency::cpu.data 1450005009000                       # number of demand (read+write) miss cycles
system.cpu.dcache.demand_miss_latency::total 1450005009000                       # number of demand (read+write) miss cycles
system.cpu.dcache.overall_miss_latency::cpu.data 1450005009000                       # number of overall miss cycles
system.cpu.dcache.overall_miss_latency::total 1450005009000                       # number of overall miss cycles
system.cpu.dcache.ReadReq_accesses::cpu.data    157214395                       # number of ReadReq accesses(hits+misses)
system.cpu.dcache.ReadReq_accesses::total    157214395                       # number of ReadReq accesses(hits+misses)
system.cpu.dcache.WriteReq_accesses::cpu.data    114460161                       # number of WriteReq accesses(hits+misses)
system.cpu.dcache.WriteReq_accesses::total    114460161                       # number of WriteReq accesses(hits+misses)
system.cpu.dcache.demand_accesses::cpu.data    271674556                       # number of demand (read+write) accesses
system.cpu.dcache.demand_accesses::total    271674556                       # number of demand (read+write) accesses
system.cpu.dcache.overall_accesses::cpu.data    271674556                       # number of overall (read+write) accesses
system.cpu.dcache.overall_accesses::total    271674556                       # number of overall (read+write) accesses
system.cpu.dcache.ReadReq_miss_rate::cpu.data     0.000853                       # miss rate for ReadReq accesses
system.cpu.dcache.ReadReq_miss_rate::total     0.000853                       # miss rate for ReadReq accesses
system.cpu.dcache.WriteReq_miss_rate::cpu.data     0.145589                       # miss rate for WriteReq accesses
system.cpu.dcache.WriteReq_miss_rate::total     0.145589                       # miss rate for WriteReq accesses
system.cpu.dcache.demand_miss_rate::cpu.data     0.061833                       # miss rate for demand accesses
system.cpu.dcache.demand_miss_rate::total     0.061833                       # miss rate for demand accesses
system.cpu.dcache.overall_miss_rate::cpu.data     0.061833                       # miss rate for overall accesses
system.cpu.dcache.overall_miss_rate::total     0.061833                       # miss rate for overall accesses
system.cpu.dcache.ReadReq_avg_miss_latency::cpu.data 198917.506447                       # average ReadReq miss latency
system.cpu.dcache.ReadReq_avg_miss_latency::total 198917.506447                       # average ReadReq miss latency
system.cpu.dcache.WriteReq_avg_miss_latency::cpu.data 85411.895760                       # average WriteReq miss latency
system.cpu.dcache.WriteReq_avg_miss_latency::total 85411.895760                       # average WriteReq miss latency
system.cpu.dcache.demand_avg_miss_latency::cpu.data 86318.422979                       # average overall miss latency
system.cpu.dcache.demand_avg_miss_latency::total 86318.422979                       # average overall miss latency
system.cpu.dcache.overall_avg_miss_latency::cpu.data 86318.422979                       # average overall miss latency
system.cpu.dcache.overall_avg_miss_latency::total 86318.422979                       # average overall miss latency
system.cpu.dcache.blocked_cycles::no_mshrs            0                       # number of cycles access was blocked
system.cpu.dcache.blocked_cycles::no_targets            0                       # number of cycles access was blocked
system.cpu.dcache.blocked::no_mshrs                 0                       # number of cycles access was blocked
system.cpu.dcache.blocked::no_targets               0                       # number of cycles access was blocked
system.cpu.dcache.avg_blocked_cycles::no_mshrs          nan                       # average number of cycles each access was blocked
system.cpu.dcache.avg_blocked_cycles::no_targets          nan                       # average number of cycles each access was blocked
system.cpu.dcache.writebacks::writebacks     16750692                       # number of writebacks
system.cpu.dcache.writebacks::total          16750692                       # number of writebacks
system.cpu.dcache.ReadReq_mshr_misses::cpu.data       134162                       # number of ReadReq MSHR misses
system.cpu.dcache.ReadReq_mshr_misses::total       134162                       # number of ReadReq MSHR misses
system.cpu.dcache.WriteReq_mshr_misses::cpu.data     16664164                       # number of WriteReq MSHR misses
system.cpu.dcache.WriteReq_mshr_misses::total     16664164                       # number of WriteReq MSHR misses
system.cpu.dcache.demand_mshr_misses::cpu.data     16798326                       # number of demand (read+write) MSHR misses
system.cpu.dcache.demand_mshr_misses::total     16798326                       # number of demand (read+write) MSHR misses
system.cpu.dcache.overall_mshr_misses::cpu.data     16798326                       # number of overall MSHR misses
system.cpu.dcache.overall_mshr_misses::total     16798326                       # number of overall MSHR misses
system.cpu.dcache.ReadReq_mshr_miss_latency::cpu.data  26553008500                       # number of ReadReq MSHR miss cycles
system.cpu.dcache.ReadReq_mshr_miss_latency::total  26553008500                       # number of ReadReq MSHR miss cycles
system.cpu.dcache.WriteReq_mshr_miss_latency::cpu.data 1406653674500                       # number of WriteReq MSHR miss cycles
system.cpu.dcache.WriteReq_mshr_miss_latency::total 1406653674500                       # number of WriteReq MSHR miss cycles
system.cpu.dcache.demand_mshr_miss_latency::cpu.data 1433206683000                       # number of demand (read+write) MSHR miss cycles
system.cpu.dcache.demand_mshr_miss_latency::total 1433206683000                       # number of demand (read+write) MSHR miss cycles
system.cpu.dcache.overall_mshr_miss_latency::cpu.data 1433206683000                       # number of overall MSHR miss cycles
system.cpu.dcache.overall_mshr_miss_latency::total 1433206683000                       # number of overall MSHR miss cycles
system.cpu.dcache.ReadReq_mshr_miss_rate::cpu.data     0.000853                       # mshr miss rate for ReadReq accesses
system.cpu.dcache.ReadReq_mshr_miss_rate::total     0.000853                       # mshr miss rate for ReadReq accesses
system.cpu.dcache.WriteReq_mshr_miss_rate::cpu.data     0.145589                       # mshr miss rate for WriteReq accesses
system.cpu.dcache.WriteReq_mshr_miss_rate::total     0.145589                       # mshr miss rate for WriteReq accesses
system.cpu.dcache.demand_mshr_miss_rate::cpu.data     0.061833                       # mshr miss rate for demand accesses
system.cpu.dcache.demand_mshr_miss_rate::total     0.061833                       # mshr miss rate for demand accesses
system.cpu.dcache.overall_mshr_miss_rate::cpu.data     0.061833                       # mshr miss rate for overall accesses
system.cpu.dcache.overall_mshr_miss_rate::total     0.061833                       # mshr miss rate for overall accesses
system.cpu.dcache.ReadReq_avg_mshr_miss_latency::cpu.data 197917.506447                       # average ReadReq mshr miss latency
system.cpu.dcache.ReadReq_avg_mshr_miss_latency::total 197917.506447                       # average ReadReq mshr miss latency
system.cpu.dcache.WriteReq_avg_mshr_miss_latency::cpu.data 84411.895760                       # average WriteReq mshr miss latency
system.cpu.dcache.WriteReq_avg_mshr_miss_latency::total 84411.895760                       # average WriteReq mshr miss latency
system.cpu.dcache.demand_avg_mshr_miss_latency::cpu.data 85318.422979                       # average overall mshr miss latency
system.cpu.dcache.demand_avg_mshr_miss_latency::total 85318.422979                       # average overall mshr miss latency
system.cpu.dcache.overall_avg_mshr_miss_latency::cpu.data 85318.422979                       # average overall mshr miss latency
system.cpu.dcache.overall_avg_mshr_miss_latency::total 85318.422979                       # average overall mshr miss latency
system.cpu.dtb_walker_cache.tags.pwrStateResidencyTicks::UNDEFINED 2381513210500                       # Cumulative time (in ticks) in various power states
system.cpu.dtb_walker_cache.tags.replacements            0                       # number of replacements
system.cpu.dtb_walker_cache.tags.tagsinuse            0                       # Cycle average of tags in use
system.cpu.dtb_walker_cache.tags.total_refs            0                       # Total number of references to valid blocks.
system.cpu.dtb_walker_cache.tags.sampled_refs            0                       # Sample count of references to valid blocks.
system.cpu.dtb_walker_cache.tags.avg_refs          nan                       # Average number of references to valid blocks.
system.cpu.dtb_walker_cache.tags.warmup_cycle            0                       # Cycle when the warmup percentage was hit.
system.cpu.dtb_walker_cache.tags.tag_accesses            0                       # Number of tag accesses
system.cpu.dtb_walker_cache.tags.data_accesses            0                       # Number of data accesses
system.cpu.dtb_walker_cache.pwrStateResidencyTicks::UNDEFINED 2381513210500                       # Cumulative time (in ticks) in various power states
system.cpu.dtb_walker_cache.blocked_cycles::no_mshrs            0                       # number of cycles access was blocked
system.cpu.dtb_walker_cache.blocked_cycles::no_targets            0                       # number of cycles access was blocked
system.cpu.dtb_walker_cache.blocked::no_mshrs            0                       # number of cycles access was blocked
system.cpu.dtb_walker_cache.blocked::no_targets            0                       # number of cycles access was blocked
system.cpu.dtb_walker_cache.avg_blocked_cycles::no_mshrs          nan                       # average number of cycles each access was blocked
system.cpu.dtb_walker_cache.avg_blocked_cycles::no_targets          nan                       # average number of cycles each access was blocked
system.cpu.icache.tags.pwrStateResidencyTicks::UNDEFINED 2381513210500                       # Cumulative time (in ticks) in various power states
system.cpu.icache.tags.replacements             70752                       # number of replacements
system.cpu.icache.tags.tagsinuse          1307.396482                       # Cycle average of tags in use
system.cpu.icache.tags.total_refs           675280891                       # Total number of references to valid blocks.
system.cpu.icache.tags.sampled_refs             72766                       # Sample count of references to valid blocks.
system.cpu.icache.tags.avg_refs           9280.170560                       # Average number of references to valid blocks.
system.cpu.icache.tags.warmup_cycle                 0                       # Cycle when the warmup percentage was hit.
system.cpu.icache.tags.occ_blocks::cpu.inst  1307.396482                       # Average occupied blocks per requestor
system.cpu.icache.tags.occ_percent::cpu.inst     0.638377                       # Average percentage of cache occupancy
system.cpu.icache.tags.occ_percent::total     0.638377                       # Average percentage of cache occupancy
system.cpu.icache.tags.occ_task_id_blocks::1024         2014                       # Occupied blocks per task id
system.cpu.icache.tags.age_task_id_blocks_1024::1           18                       # Occupied blocks per task id
system.cpu.icache.tags.age_task_id_blocks_1024::2           21                       # Occupied blocks per task id
system.cpu.icache.tags.age_task_id_blocks_1024::3           40                       # Occupied blocks per task id
system.cpu.icache.tags.age_task_id_blocks_1024::4         1935                       # Occupied blocks per task id
system.cpu.icache.tags.occ_task_id_percent::1024     0.983398                       # Percentage of cache occupancy per task id
system.cpu.icache.tags.tag_accesses        2701487394                       # Number of tag accesses
system.cpu.icache.tags.data_accesses       2701487394                       # Number of data accesses
system.cpu.icache.pwrStateResidencyTicks::UNDEFINED 2381513210500                       # Cumulative time (in ticks) in various power states
system.cpu.icache.ReadReq_hits::cpu.inst    675280891                       # number of ReadReq hits
system.cpu.icache.ReadReq_hits::total       675280891                       # number of ReadReq hits
system.cpu.icache.demand_hits::cpu.inst     675280891                       # number of demand (read+write) hits
system.cpu.icache.demand_hits::total        675280891                       # number of demand (read+write) hits
system.cpu.icache.overall_hits::cpu.inst    675280891                       # number of overall hits
system.cpu.icache.overall_hits::total       675280891                       # number of overall hits
system.cpu.icache.ReadReq_misses::cpu.inst        72766                       # number of ReadReq misses
system.cpu.icache.ReadReq_misses::total         72766                       # number of ReadReq misses
system.cpu.icache.demand_misses::cpu.inst        72766                       # number of demand (read+write) misses
system.cpu.icache.demand_misses::total          72766                       # number of demand (read+write) misses
system.cpu.icache.overall_misses::cpu.inst        72766                       # number of overall misses
system.cpu.icache.overall_misses::total         72766                       # number of overall misses
system.cpu.icache.ReadReq_miss_latency::cpu.inst   1351582500                       # number of ReadReq miss cycles
system.cpu.icache.ReadReq_miss_latency::total   1351582500                       # number of ReadReq miss cycles
system.cpu.icache.demand_miss_latency::cpu.inst   1351582500                       # number of demand (read+write) miss cycles
system.cpu.icache.demand_miss_latency::total   1351582500                       # number of demand (read+write) miss cycles
system.cpu.icache.overall_miss_latency::cpu.inst   1351582500                       # number of overall miss cycles
system.cpu.icache.overall_miss_latency::total   1351582500                       # number of overall miss cycles
system.cpu.icache.ReadReq_accesses::cpu.inst    675353657                       # number of ReadReq accesses(hits+misses)
system.cpu.icache.ReadReq_accesses::total    675353657                       # number of ReadReq accesses(hits+misses)
system.cpu.icache.demand_accesses::cpu.inst    675353657                       # number of demand (read+write) accesses
system.cpu.icache.demand_accesses::total    675353657                       # number of demand (read+write) accesses
system.cpu.icache.overall_accesses::cpu.inst    675353657                       # number of overall (read+write) accesses
system.cpu.icache.overall_accesses::total    675353657                       # number of overall (read+write) accesses
system.cpu.icache.ReadReq_miss_rate::cpu.inst     0.000108                       # miss rate for ReadReq accesses
system.cpu.icache.ReadReq_miss_rate::total     0.000108                       # miss rate for ReadReq accesses
system.cpu.icache.demand_miss_rate::cpu.inst     0.000108                       # miss rate for demand accesses
system.cpu.icache.demand_miss_rate::total     0.000108                       # miss rate for demand accesses
system.cpu.icache.overall_miss_rate::cpu.inst     0.000108                       # miss rate for overall accesses
system.cpu.icache.overall_miss_rate::total     0.000108                       # miss rate for overall accesses
system.cpu.icache.ReadReq_avg_miss_latency::cpu.inst 18574.368524                       # average ReadReq miss latency
system.cpu.icache.ReadReq_avg_miss_latency::total 18574.368524                       # average ReadReq miss latency
system.cpu.icache.demand_avg_miss_latency::cpu.inst 18574.368524                       # average overall miss latency
system.cpu.icache.demand_avg_miss_latency::total 18574.368524                       # average overall miss latency
system.cpu.icache.overall_avg_miss_latency::cpu.inst 18574.368524                       # average overall miss latency
system.cpu.icache.overall_avg_miss_latency::total 18574.368524                       # average overall miss latency
system.cpu.icache.blocked_cycles::no_mshrs            0                       # number of cycles access was blocked
system.cpu.icache.blocked_cycles::no_targets            0                       # number of cycles access was blocked
system.cpu.icache.blocked::no_mshrs                 0                       # number of cycles access was blocked
system.cpu.icache.blocked::no_targets               0                       # number of cycles access was blocked
system.cpu.icache.avg_blocked_cycles::no_mshrs          nan                       # average number of cycles each access was blocked
system.cpu.icache.avg_blocked_cycles::no_targets          nan                       # average number of cycles each access was blocked
system.cpu.icache.writebacks::writebacks        70752                       # number of writebacks
system.cpu.icache.writebacks::total             70752                       # number of writebacks
system.cpu.icache.ReadReq_mshr_misses::cpu.inst        72766                       # number of ReadReq MSHR misses
system.cpu.icache.ReadReq_mshr_misses::total        72766                       # number of ReadReq MSHR misses
system.cpu.icache.demand_mshr_misses::cpu.inst        72766                       # number of demand (read+write) MSHR misses
system.cpu.icache.demand_mshr_misses::total        72766                       # number of demand (read+write) MSHR misses
system.cpu.icache.overall_mshr_misses::cpu.inst        72766                       # number of overall MSHR misses
system.cpu.icache.overall_mshr_misses::total        72766                       # number of overall MSHR misses
system.cpu.icache.ReadReq_mshr_miss_latency::cpu.inst   1278816500                       # number of ReadReq MSHR miss cycles
system.cpu.icache.ReadReq_mshr_miss_latency::total   1278816500                       # number of ReadReq MSHR miss cycles
system.cpu.icache.demand_mshr_miss_latency::cpu.inst   1278816500                       # number of demand (read+write) MSHR miss cycles
system.cpu.icache.demand_mshr_miss_latency::total   1278816500                       # number of demand (read+write) MSHR miss cycles
system.cpu.icache.overall_mshr_miss_latency::cpu.inst   1278816500                       # number of overall MSHR miss cycles
system.cpu.icache.overall_mshr_miss_latency::total   1278816500                       # number of overall MSHR miss cycles
system.cpu.icache.ReadReq_mshr_miss_rate::cpu.inst     0.000108                       # mshr miss rate for ReadReq accesses
system.cpu.icache.ReadReq_mshr_miss_rate::total     0.000108                       # mshr miss rate for ReadReq accesses
system.cpu.icache.demand_mshr_miss_rate::cpu.inst     0.000108                       # mshr miss rate for demand accesses
system.cpu.icache.demand_mshr_miss_rate::total     0.000108                       # mshr miss rate for demand accesses
system.cpu.icache.overall_mshr_miss_rate::cpu.inst     0.000108                       # mshr miss rate for overall accesses
system.cpu.icache.overall_mshr_miss_rate::total     0.000108                       # mshr miss rate for overall accesses
system.cpu.icache.ReadReq_avg_mshr_miss_latency::cpu.inst 17574.368524                       # average ReadReq mshr miss latency
system.cpu.icache.ReadReq_avg_mshr_miss_latency::total 17574.368524                       # average ReadReq mshr miss latency
system.cpu.icache.demand_avg_mshr_miss_latency::cpu.inst 17574.368524                       # average overall mshr miss latency
system.cpu.icache.demand_avg_mshr_miss_latency::total 17574.368524                       # average overall mshr miss latency
system.cpu.icache.overall_avg_mshr_miss_latency::cpu.inst 17574.368524                       # average overall mshr miss latency
system.cpu.icache.overall_avg_mshr_miss_latency::total 17574.368524                       # average overall mshr miss latency
system.cpu.itb_walker_cache.tags.pwrStateResidencyTicks::UNDEFINED 2381513210500                       # Cumulative time (in ticks) in various power states
system.cpu.itb_walker_cache.tags.replacements            0                       # number of replacements
system.cpu.itb_walker_cache.tags.tagsinuse            0                       # Cycle average of tags in use
system.cpu.itb_walker_cache.tags.total_refs            0                       # Total number of references to valid blocks.
system.cpu.itb_walker_cache.tags.sampled_refs            0                       # Sample count of references to valid blocks.
system.cpu.itb_walker_cache.tags.avg_refs          nan                       # Average number of references to valid blocks.
system.cpu.itb_walker_cache.tags.warmup_cycle            0                       # Cycle when the warmup percentage was hit.
system.cpu.itb_walker_cache.tags.tag_accesses            0                       # Number of tag accesses
system.cpu.itb_walker_cache.tags.data_accesses            0                       # Number of data accesses
system.cpu.itb_walker_cache.pwrStateResidencyTicks::UNDEFINED 2381513210500                       # Cumulative time (in ticks) in various power states
system.cpu.itb_walker_cache.blocked_cycles::no_mshrs            0                       # number of cycles access was blocked
system.cpu.itb_walker_cache.blocked_cycles::no_targets            0                       # number of cycles access was blocked
system.cpu.itb_walker_cache.blocked::no_mshrs            0                       # number of cycles access was blocked
system.cpu.itb_walker_cache.blocked::no_targets            0                       # number of cycles access was blocked
system.cpu.itb_walker_cache.avg_blocked_cycles::no_mshrs          nan                       # average number of cycles each access was blocked
system.cpu.itb_walker_cache.avg_blocked_cycles::no_targets          nan                       # average number of cycles each access was blocked
system.l2.tags.pwrStateResidencyTicks::UNDEFINED 2381513210500                       # Cumulative time (in ticks) in various power states
system.l2.tags.replacements                  16658898                       # number of replacements
system.l2.tags.tagsinuse                 32651.790645                       # Cycle average of tags in use
system.l2.tags.total_refs                    17041847                       # Total number of references to valid blocks.
system.l2.tags.sampled_refs                  16691666                       # Sample count of references to valid blocks.
system.l2.tags.avg_refs                      1.020979                       # Average number of references to valid blocks.
system.l2.tags.warmup_cycle               11057732000                       # Cycle when the warmup percentage was hit.
system.l2.tags.occ_blocks::writebacks      433.861119                       # Average occupied blocks per requestor
system.l2.tags.occ_blocks::cpu.inst        221.818289                       # Average occupied blocks per requestor
system.l2.tags.occ_blocks::cpu.data      31996.111237                       # Average occupied blocks per requestor
system.l2.tags.occ_percent::writebacks       0.013240                       # Average percentage of cache occupancy
system.l2.tags.occ_percent::cpu.inst         0.006769                       # Average percentage of cache occupancy
system.l2.tags.occ_percent::cpu.data         0.976444                       # Average percentage of cache occupancy
system.l2.tags.occ_percent::total            0.996454                       # Average percentage of cache occupancy
system.l2.tags.occ_task_id_blocks::1024         32768                       # Occupied blocks per task id
system.l2.tags.age_task_id_blocks_1024::1           13                       # Occupied blocks per task id
system.l2.tags.age_task_id_blocks_1024::2           96                       # Occupied blocks per task id
system.l2.tags.age_task_id_blocks_1024::3          984                       # Occupied blocks per task id
system.l2.tags.age_task_id_blocks_1024::4        31675                       # Occupied blocks per task id
system.l2.tags.occ_task_id_percent::1024            1                       # Percentage of cache occupancy per task id
system.l2.tags.tag_accesses                  50429788                       # Number of tag accesses
system.l2.tags.data_accesses                 50429788                       # Number of data accesses
system.l2.pwrStateResidencyTicks::UNDEFINED 2381513210500                       # Cumulative time (in ticks) in various power states
system.l2.WritebackDirty_hits::writebacks     16750692                       # number of WritebackDirty hits
system.l2.WritebackDirty_hits::total         16750692                       # number of WritebackDirty hits
system.l2.WritebackClean_hits::writebacks        70752                       # number of WritebackClean hits
system.l2.WritebackClean_hits::total            70752                       # number of WritebackClean hits
system.l2.ReadExReq_hits::cpu.data              74027                       # number of ReadExReq hits
system.l2.ReadExReq_hits::total                 74027                       # number of ReadExReq hits
system.l2.ReadCleanReq_hits::cpu.inst           69277                       # number of ReadCleanReq hits
system.l2.ReadCleanReq_hits::total              69277                       # number of ReadCleanReq hits
system.l2.ReadSharedReq_hits::cpu.data          49044                       # number of ReadSharedReq hits
system.l2.ReadSharedReq_hits::total             49044                       # number of ReadSharedReq hits
system.l2.demand_hits::cpu.inst                 69277                       # number of demand (read+write) hits
system.l2.demand_hits::cpu.data                123071                       # number of demand (read+write) hits
system.l2.demand_hits::total                   192348                       # number of demand (read+write) hits
system.l2.overall_hits::cpu.inst                69277                       # number of overall hits
system.l2.overall_hits::cpu.data               123071                       # number of overall hits
system.l2.overall_hits::total                  192348                       # number of overall hits
system.l2.ReadExReq_misses::cpu.data         16590137                       # number of ReadExReq misses
system.l2.ReadExReq_misses::total            16590137                       # number of ReadExReq misses
system.l2.ReadCleanReq_misses::cpu.inst          3489                       # number of ReadCleanReq misses
system.l2.ReadCleanReq_misses::total             3489                       # number of ReadCleanReq misses
system.l2.ReadSharedReq_misses::cpu.data        85118                       # number of ReadSharedReq misses
system.l2.ReadSharedReq_misses::total           85118                       # number of ReadSharedReq misses
system.l2.demand_misses::cpu.inst                3489                       # number of demand (read+write) misses
system.l2.demand_misses::cpu.data            16675255                       # number of demand (read+write) misses
system.l2.demand_misses::total               16678744                       # number of demand (read+write) misses
system.l2.overall_misses::cpu.inst               3489                       # number of overall misses
system.l2.overall_misses::cpu.data           16675255                       # number of overall misses
system.l2.overall_misses::total              16678744                       # number of overall misses
system.l2.ReadExReq_miss_latency::cpu.data 1380880145000                       # number of ReadExReq miss cycles
system.l2.ReadExReq_miss_latency::total  1380880145000                       # number of ReadExReq miss cycles
system.l2.ReadCleanReq_miss_latency::cpu.inst    442259000                       # number of ReadCleanReq miss cycles
system.l2.ReadCleanReq_miss_latency::total    442259000                       # number of ReadCleanReq miss cycles
system.l2.ReadSharedReq_miss_latency::cpu.data  25836803000                       # number of ReadSharedReq miss cycles
system.l2.ReadSharedReq_miss_latency::total  25836803000                       # number of ReadSharedReq miss cycles
system.l2.demand_miss_latency::cpu.inst     442259000                       # number of demand (read+write) miss cycles
system.l2.demand_miss_latency::cpu.data  1406716948000                       # number of demand (read+write) miss cycles
system.l2.demand_miss_latency::total     1407159207000                       # number of demand (read+write) miss cycles
system.l2.overall_miss_latency::cpu.inst    442259000                       # number of overall miss cycles
system.l2.overall_miss_latency::cpu.data 1406716948000                       # number of overall miss cycles
system.l2.overall_miss_latency::total    1407159207000                       # number of overall miss cycles
system.l2.WritebackDirty_accesses::writebacks     16750692                       # number of WritebackDirty accesses(hits+misses)
system.l2.WritebackDirty_accesses::total     16750692                       # number of WritebackDirty accesses(hits+misses)
system.l2.WritebackClean_accesses::writebacks        70752                       # number of WritebackClean accesses(hits+misses)
system.l2.WritebackClean_accesses::total        70752                       # number of WritebackClean accesses(hits+misses)
system.l2.ReadExReq_accesses::cpu.data       16664164                       # number of ReadExReq accesses(hits+misses)
system.l2.ReadExReq_accesses::total          16664164                       # number of ReadExReq accesses(hits+misses)
system.l2.ReadCleanReq_accesses::cpu.inst        72766                       # number of ReadCleanReq accesses(hits+misses)
system.l2.ReadCleanReq_accesses::total          72766                       # number of ReadCleanReq accesses(hits+misses)
system.l2.ReadSharedReq_accesses::cpu.data       134162                       # number of ReadSharedReq accesses(hits+misses)
system.l2.ReadSharedReq_accesses::total        134162                       # number of ReadSharedReq accesses(hits+misses)
system.l2.demand_accesses::cpu.inst             72766                       # number of demand (read+write) accesses
system.l2.demand_accesses::cpu.data          16798326                       # number of demand (read+write) accesses
system.l2.demand_accesses::total             16871092                       # number of demand (read+write) accesses
system.l2.overall_accesses::cpu.inst            72766                       # number of overall (read+write) accesses
system.l2.overall_accesses::cpu.data         16798326                       # number of overall (read+write) accesses
system.l2.overall_accesses::total            16871092                       # number of overall (read+write) accesses
system.l2.ReadExReq_miss_rate::cpu.data      0.995558                       # miss rate for ReadExReq accesses
system.l2.ReadExReq_miss_rate::total         0.995558                       # miss rate for ReadExReq accesses
system.l2.ReadCleanReq_miss_rate::cpu.inst     0.047948                       # miss rate for ReadCleanReq accesses
system.l2.ReadCleanReq_miss_rate::total      0.047948                       # miss rate for ReadCleanReq accesses
system.l2.ReadSharedReq_miss_rate::cpu.data     0.634442                       # miss rate for ReadSharedReq accesses
system.l2.ReadSharedReq_miss_rate::total     0.634442                       # miss rate for ReadSharedReq accesses
system.l2.demand_miss_rate::cpu.inst         0.047948                       # miss rate for demand accesses
system.l2.demand_miss_rate::cpu.data         0.992674                       # miss rate for demand accesses
system.l2.demand_miss_rate::total            0.988599                       # miss rate for demand accesses
system.l2.overall_miss_rate::cpu.inst        0.047948                       # miss rate for overall accesses
system.l2.overall_miss_rate::cpu.data        0.992674                       # miss rate for overall accesses
system.l2.overall_miss_rate::total           0.988599                       # miss rate for overall accesses
system.l2.ReadExReq_avg_miss_latency::cpu.data 83235.005534                       # average ReadExReq miss latency
system.l2.ReadExReq_avg_miss_latency::total 83235.005534                       # average ReadExReq miss latency
system.l2.ReadCleanReq_avg_miss_latency::cpu.inst 126758.096876                       # average ReadCleanReq miss latency
system.l2.ReadCleanReq_avg_miss_latency::total 126758.096876                       # average ReadCleanReq miss latency
system.l2.ReadSharedReq_avg_miss_latency::cpu.data 303541.001903                       # average ReadSharedReq miss latency
system.l2.ReadSharedReq_avg_miss_latency::total 303541.001903                       # average ReadSharedReq miss latency
system.l2.demand_avg_miss_latency::cpu.inst 126758.096876                       # average overall miss latency
system.l2.demand_avg_miss_latency::cpu.data 84359.546406                       # average overall miss latency
system.l2.demand_avg_miss_latency::total 84368.415691                       # average overall miss latency
system.l2.overall_avg_miss_latency::cpu.inst 126758.096876                       # average overall miss latency
system.l2.overall_avg_miss_latency::cpu.data 84359.546406                       # average overall miss latency
system.l2.overall_avg_miss_latency::total 84368.415691                       # average overall miss latency
system.l2.blocked_cycles::no_mshrs                  0                       # number of cycles access was blocked
system.l2.blocked_cycles::no_targets                0                       # number of cycles access was blocked
system.l2.blocked::no_mshrs                         0                       # number of cycles access was blocked
system.l2.blocked::no_targets                       0                       # number of cycles access was blocked
system.l2.avg_blocked_cycles::no_mshrs            nan                       # average number of cycles each access was blocked
system.l2.avg_blocked_cycles::no_targets          nan                       # average number of cycles each access was blocked
system.l2.writebacks::writebacks             16627469                       # number of writebacks
system.l2.writebacks::total                  16627469                       # number of writebacks
system.l2.CleanEvict_mshr_misses::writebacks         4609                       # number of CleanEvict MSHR misses
system.l2.CleanEvict_mshr_misses::total          4609                       # number of CleanEvict MSHR misses
system.l2.ReadExReq_mshr_misses::cpu.data     16590137                       # number of ReadExReq MSHR misses
system.l2.ReadExReq_mshr_misses::total       16590137                       # number of ReadExReq MSHR misses
system.l2.ReadCleanReq_mshr_misses::cpu.inst         3489                       # number of ReadCleanReq MSHR misses
system.l2.ReadCleanReq_mshr_misses::total         3489                       # number of ReadCleanReq MSHR misses
system.l2.ReadSharedReq_mshr_misses::cpu.data        85118                       # number of ReadSharedReq MSHR misses
system.l2.ReadSharedReq_mshr_misses::total        85118                       # number of ReadSharedReq MSHR misses
system.l2.demand_mshr_misses::cpu.inst           3489                       # number of demand (read+write) MSHR misses
system.l2.demand_mshr_misses::cpu.data       16675255                       # number of demand (read+write) MSHR misses
system.l2.demand_mshr_misses::total          16678744                       # number of demand (read+write) MSHR misses
system.l2.overall_mshr_misses::cpu.inst          3489                       # number of overall MSHR misses
system.l2.overall_mshr_misses::cpu.data      16675255                       # number of overall MSHR misses
system.l2.overall_mshr_misses::total         16678744                       # number of overall MSHR misses
system.l2.ReadExReq_mshr_miss_latency::cpu.data 1214978775000                       # number of ReadExReq MSHR miss cycles
system.l2.ReadExReq_mshr_miss_latency::total 1214978775000                       # number of ReadExReq MSHR miss cycles
system.l2.ReadCleanReq_mshr_miss_latency::cpu.inst    407369000                       # number of ReadCleanReq MSHR miss cycles
system.l2.ReadCleanReq_mshr_miss_latency::total    407369000                       # number of ReadCleanReq MSHR miss cycles
system.l2.ReadSharedReq_mshr_miss_latency::cpu.data  24985623000                       # number of ReadSharedReq MSHR miss cycles
system.l2.ReadSharedReq_mshr_miss_latency::total  24985623000                       # number of ReadSharedReq MSHR miss cycles
system.l2.demand_mshr_miss_latency::cpu.inst    407369000                       # number of demand (read+write) MSHR miss cycles
system.l2.demand_mshr_miss_latency::cpu.data 1239964398000                       # number of demand (read+write) MSHR miss cycles
system.l2.demand_mshr_miss_latency::total 1240371767000                       # number of demand (read+write) MSHR miss cycles
system.l2.overall_mshr_miss_latency::cpu.inst    407369000                       # number of overall MSHR miss cycles
system.l2.overall_mshr_miss_latency::cpu.data 1239964398000                       # number of overall MSHR miss cycles
system.l2.overall_mshr_miss_latency::total 1240371767000                       # number of overall MSHR miss cycles
system.l2.CleanEvict_mshr_miss_rate::writebacks          inf                       # mshr miss rate for CleanEvict accesses
system.l2.CleanEvict_mshr_miss_rate::total          inf                       # mshr miss rate for CleanEvict accesses
system.l2.ReadExReq_mshr_miss_rate::cpu.data     0.995558                       # mshr miss rate for ReadExReq accesses
system.l2.ReadExReq_mshr_miss_rate::total     0.995558                       # mshr miss rate for ReadExReq accesses
system.l2.ReadCleanReq_mshr_miss_rate::cpu.inst     0.047948                       # mshr miss rate for ReadCleanReq accesses
system.l2.ReadCleanReq_mshr_miss_rate::total     0.047948                       # mshr miss rate for ReadCleanReq accesses
system.l2.ReadSharedReq_mshr_miss_rate::cpu.data     0.634442                       # mshr miss rate for ReadSharedReq accesses
system.l2.ReadSharedReq_mshr_miss_rate::total     0.634442                       # mshr miss rate for ReadSharedReq accesses
system.l2.demand_mshr_miss_rate::cpu.inst     0.047948                       # mshr miss rate for demand accesses
system.l2.demand_mshr_miss_rate::cpu.data     0.992674                       # mshr miss rate for demand accesses
system.l2.demand_mshr_miss_rate::total       0.988599                       # mshr miss rate for demand accesses
system.l2.overall_mshr_miss_rate::cpu.inst     0.047948                       # mshr miss rate for overall accesses
system.l2.overall_mshr_miss_rate::cpu.data     0.992674                       # mshr miss rate for overall accesses
system.l2.overall_mshr_miss_rate::total      0.988599                       # mshr miss rate for overall accesses
system.l2.ReadExReq_avg_mshr_miss_latency::cpu.data 73235.005534                       # average ReadExReq mshr miss latency
system.l2.ReadExReq_avg_mshr_miss_latency::total 73235.005534                       # average ReadExReq mshr miss latency
system.l2.ReadCleanReq_avg_mshr_miss_latency::cpu.inst 116758.096876                       # average ReadCleanReq mshr miss latency
system.l2.ReadCleanReq_avg_mshr_miss_latency::total 116758.096876                       # average ReadCleanReq mshr miss latency
system.l2.ReadSharedReq_avg_mshr_miss_latency::cpu.data 293541.001903                       # average ReadSharedReq mshr miss latency
system.l2.ReadSharedReq_avg_mshr_miss_latency::total 293541.001903                       # average ReadSharedReq mshr miss latency
system.l2.demand_avg_mshr_miss_latency::cpu.inst 116758.096876                       # average overall mshr miss latency
system.l2.demand_avg_mshr_miss_latency::cpu.data 74359.546406                       # average overall mshr miss latency
system.l2.demand_avg_mshr_miss_latency::total 74368.415691                       # average overall mshr miss latency
system.l2.overall_avg_mshr_miss_latency::cpu.inst 116758.096876                       # average overall mshr miss latency
system.l2.overall_avg_mshr_miss_latency::cpu.data 74359.546406                       # average overall mshr miss latency
system.l2.overall_avg_mshr_miss_latency::total 74368.415691                       # average overall mshr miss latency
system.membus.snoop_filter.tot_requests      33322821                       # Total number of requests made to the snoop filter.
system.membus.snoop_filter.hit_single_requests     16644077                       # Number of requests hitting in the snoop filter with a single holder of the requested data.
system.membus.snoop_filter.hit_multi_requests            0                       # Number of requests hitting in the snoop filter with multiple (>1) holders of the requested data.
system.membus.snoop_filter.tot_snoops               0                       # Total number of snoops made to the snoop filter.
system.membus.snoop_filter.hit_single_snoops            0                       # Number of snoops hitting in the snoop filter with a single holder of the requested data.
system.membus.snoop_filter.hit_multi_snoops            0                       # Number of snoops hitting in the snoop filter with multiple (>1) holders of the requested data.
system.membus.pwrStateResidencyTicks::UNDEFINED 2381513210500                       # Cumulative time (in ticks) in various power states
system.membus.trans_dist::ReadResp              88607                       # Transaction distribution
system.membus.trans_dist::WritebackDirty     16627469                       # Transaction distribution
system.membus.trans_dist::CleanEvict            16608                       # Transaction distribution
system.membus.trans_dist::ReadExReq          16590137                       # Transaction distribution
system.membus.trans_dist::ReadExResp         16590137                       # Transaction distribution
system.membus.trans_dist::ReadSharedReq         88607                       # Transaction distribution
system.membus.pkt_count_system.l2.mem_side::system.mem_ctrls.port     50001565                       # Packet count per connected master and slave (bytes)
system.membus.pkt_count_system.l2.mem_side::total     50001565                       # Packet count per connected master and slave (bytes)
system.membus.pkt_count::total               50001565                       # Packet count per connected master and slave (bytes)
system.membus.pkt_size_system.l2.mem_side::system.mem_ctrls.port   1065798816                       # Cumulative packet size per connected master and slave (bytes)
system.membus.pkt_size_system.l2.mem_side::total   1065798816                       # Cumulative packet size per connected master and slave (bytes)
system.membus.pkt_size::total              1065798816                       # Cumulative packet size per connected master and slave (bytes)
system.membus.snoops                                0                       # Total snoops (count)
system.membus.snoopTraffic                          0                       # Total snoop traffic (bytes)
system.membus.snoop_fanout::samples          16678744                       # Request fanout histogram
system.membus.snoop_fanout::mean                    0                       # Request fanout histogram
system.membus.snoop_fanout::stdev                   0                       # Request fanout histogram
system.membus.snoop_fanout::underflows              0      0.00%      0.00% # Request fanout histogram
system.membus.snoop_fanout::0                16678744    100.00%    100.00% # Request fanout histogram
system.membus.snoop_fanout::1                       0      0.00%    100.00% # Request fanout histogram
system.membus.snoop_fanout::overflows               0      0.00%    100.00% # Request fanout histogram
system.membus.snoop_fanout::min_value               0                       # Request fanout histogram
system.membus.snoop_fanout::max_value               0                       # Request fanout histogram
system.membus.snoop_fanout::total            16678744                       # Request fanout histogram
system.membus.reqLayer2.occupancy         66577795500                       # Layer occupancy (ticks)
system.membus.reqLayer2.utilization               2.8                       # Layer utilization (%)
system.membus.respLayer1.occupancy        54471794500                       # Layer occupancy (ticks)
system.membus.respLayer1.utilization              2.3                       # Layer utilization (%)
system.tol2bus.snoop_filter.tot_requests     33738122                       # Total number of requests made to the snoop filter.
system.tol2bus.snoop_filter.hit_single_requests     16867030                       # Number of requests hitting in the snoop filter with a single holder of the requested data.
system.tol2bus.snoop_filter.hit_multi_requests            0                       # Number of requests hitting in the snoop filter with multiple (>1) holders of the requested data.
system.tol2bus.snoop_filter.tot_snoops          19430                       # Total number of snoops made to the snoop filter.
system.tol2bus.snoop_filter.hit_single_snoops        19430                       # Number of snoops hitting in the snoop filter with a single holder of the requested data.
system.tol2bus.snoop_filter.hit_multi_snoops            0                       # Number of snoops hitting in the snoop filter with multiple (>1) holders of the requested data.
system.tol2bus.pwrStateResidencyTicks::UNDEFINED 2381513210500                       # Cumulative time (in ticks) in various power states
system.tol2bus.trans_dist::ReadResp            206928                       # Transaction distribution
system.tol2bus.trans_dist::WritebackDirty     33378161                       # Transaction distribution
system.tol2bus.trans_dist::WritebackClean        70752                       # Transaction distribution
system.tol2bus.trans_dist::CleanEvict           77015                       # Transaction distribution
system.tol2bus.trans_dist::ReadExReq         16664164                       # Transaction distribution
system.tol2bus.trans_dist::ReadExResp        16664164                       # Transaction distribution
system.tol2bus.trans_dist::ReadCleanReq         72766                       # Transaction distribution
system.tol2bus.trans_dist::ReadSharedReq       134162                       # Transaction distribution
system.tol2bus.pkt_count_system.cpu.icache.mem_side::system.l2.cpu_side       216284                       # Packet count per connected master and slave (bytes)
system.tol2bus.pkt_count_system.cpu.dcache.mem_side::system.l2.cpu_side     50392930                       # Packet count per connected master and slave (bytes)
system.tol2bus.pkt_count::total              50609214                       # Packet count per connected master and slave (bytes)
system.tol2bus.pkt_size_system.cpu.icache.mem_side::system.l2.cpu_side      4592576                       # Cumulative packet size per connected master and slave (bytes)
system.tol2bus.pkt_size_system.cpu.dcache.mem_side::system.l2.cpu_side   1073568576                       # Cumulative packet size per connected master and slave (bytes)
system.tol2bus.pkt_size::total             1078161152                       # Cumulative packet size per connected master and slave (bytes)
system.tol2bus.snoops                        16658898                       # Total snoops (count)
system.tol2bus.snoopTraffic                 532079008                       # Total snoop traffic (bytes)
system.tol2bus.snoop_fanout::samples         33529990                       # Request fanout histogram
system.tol2bus.snoop_fanout::mean            0.000579                       # Request fanout histogram
system.tol2bus.snoop_fanout::stdev           0.024065                       # Request fanout histogram
system.tol2bus.snoop_fanout::underflows             0      0.00%      0.00% # Request fanout histogram
system.tol2bus.snoop_fanout::0               33510560     99.94%     99.94% # Request fanout histogram
system.tol2bus.snoop_fanout::1                  19430      0.06%    100.00% # Request fanout histogram
system.tol2bus.snoop_fanout::2                      0      0.00%    100.00% # Request fanout histogram
system.tol2bus.snoop_fanout::3                      0      0.00%    100.00% # Request fanout histogram
system.tol2bus.snoop_fanout::4                      0      0.00%    100.00% # Request fanout histogram
system.tol2bus.snoop_fanout::overflows              0      0.00%    100.00% # Request fanout histogram
system.tol2bus.snoop_fanout::min_value              0                       # Request fanout histogram
system.tol2bus.snoop_fanout::max_value              1                       # Request fanout histogram
system.tol2bus.snoop_fanout::total           33529990                       # Request fanout histogram
system.tol2bus.reqLayer0.occupancy        25279783000                       # Layer occupancy (ticks)
system.tol2bus.reqLayer0.utilization              1.1                       # Layer utilization (%)
system.tol2bus.respLayer0.occupancy          72766000                       # Layer occupancy (ticks)
system.tol2bus.respLayer0.utilization             0.0                       # Layer utilization (%)
system.tol2bus.respLayer1.occupancy       16798326000                       # Layer occupancy (ticks)
system.tol2bus.respLayer1.utilization             0.7                       # Layer utilization (%)

---------- End Simulation Statistics   ----------
