
---------- Begin Simulation Statistics ----------
sim_seconds                                  2.027588                       # Number of seconds simulated
sim_ticks                                2027588497500                       # Number of ticks simulated
final_tick                               2027588497500                       # Number of ticks from beginning of simulation (restored from checkpoints and never reset)
sim_freq                                 1000000000000                       # Frequency of simulated ticks
host_inst_rate                                 212603                       # Simulator instruction rate (inst/s)
host_op_rate                                   372614                       # Simulator op (including micro ops) rate (op/s)
host_tick_rate                              862143017                       # Simulator tick rate (ticks/s)
host_mem_usage                                 600124                       # Number of bytes of host memory used
host_seconds                                  2351.80                       # Real time elapsed on the host
sim_insts                                   500000000                       # Number of instructions simulated
sim_ops                                     876313781                       # Number of ops (including micro ops) simulated
system.voltage_domain.voltage                       1                       # Voltage in Volts
system.clk_domain.clock                          1000                       # Clock period in ticks
system.mem_ctrls.pwrStateResidencyTicks::UNDEFINED 2027588497500                       # Cumulative time (in ticks) in various power states
system.mem_ctrls.bytes_read::cpu.inst           37792                       # Number of bytes read from this memory
system.mem_ctrls.bytes_read::cpu.data       319694304                       # Number of bytes read from this memory
system.mem_ctrls.bytes_read::total          319732096                       # Number of bytes read from this memory
system.mem_ctrls.bytes_inst_read::cpu.inst        37792                       # Number of instructions bytes read from this memory
system.mem_ctrls.bytes_inst_read::total         37792                       # Number of instructions bytes read from this memory
system.mem_ctrls.bytes_written::writebacks     39441376                       # Number of bytes written to this memory
system.mem_ctrls.bytes_written::total        39441376                       # Number of bytes written to this memory
system.mem_ctrls.num_reads::cpu.inst             1181                       # Number of read requests responded to by this memory
system.mem_ctrls.num_reads::cpu.data          9990447                       # Number of read requests responded to by this memory
system.mem_ctrls.num_reads::total             9991628                       # Number of read requests responded to by this memory
system.mem_ctrls.num_writes::writebacks       1232543                       # Number of write requests responded to by this memory
system.mem_ctrls.num_writes::total            1232543                       # Number of write requests responded to by this memory
system.mem_ctrls.bw_read::cpu.inst              18639                       # Total read bandwidth from this memory (bytes/s)
system.mem_ctrls.bw_read::cpu.data          157672183                       # Total read bandwidth from this memory (bytes/s)
system.mem_ctrls.bw_read::total             157690822                       # Total read bandwidth from this memory (bytes/s)
system.mem_ctrls.bw_inst_read::cpu.inst         18639                       # Instruction read bandwidth from this memory (bytes/s)
system.mem_ctrls.bw_inst_read::total            18639                       # Instruction read bandwidth from this memory (bytes/s)
system.mem_ctrls.bw_write::writebacks        19452357                       # Write bandwidth from this memory (bytes/s)
system.mem_ctrls.bw_write::total             19452357                       # Write bandwidth from this memory (bytes/s)
system.mem_ctrls.bw_total::writebacks        19452357                       # Total bandwidth to/from this memory (bytes/s)
system.mem_ctrls.bw_total::cpu.inst             18639                       # Total bandwidth to/from this memory (bytes/s)
system.mem_ctrls.bw_total::cpu.data         157672183                       # Total bandwidth to/from this memory (bytes/s)
system.mem_ctrls.bw_total::total            177143179                       # Total bandwidth to/from this memory (bytes/s)
system.mem_ctrls.readReqs                     9991628                       # Number of read requests accepted
system.mem_ctrls.writeReqs                    1232543                       # Number of write requests accepted
system.mem_ctrls.readBursts                   9991628                       # Number of DRAM read bursts, including those serviced by the write queue
system.mem_ctrls.writeBursts                  1232543                       # Number of DRAM write bursts, including those merged in the write queue
system.mem_ctrls.bytesReadDRAM              639151680                       # Total number of bytes read from DRAM
system.mem_ctrls.bytesReadWrQ                  312512                       # Total number of bytes read from write queue
system.mem_ctrls.bytesWritten                74943104                       # Total number of bytes written to DRAM
system.mem_ctrls.bytesReadSys               319732096                       # Total read bytes from the system interface side
system.mem_ctrls.bytesWrittenSys             39441376                       # Total written bytes from the system interface side
system.mem_ctrls.servicedByWrQ                   4883                       # Number of DRAM read bursts serviced by the write queue
system.mem_ctrls.mergedWrBursts                 61535                       # Number of DRAM write bursts merged with an existing one
system.mem_ctrls.neitherReadNorWriteReqs            0                       # Number of requests that are neither read nor write
system.mem_ctrls.perBankRdBursts::0            640729                       # Per bank write bursts
system.mem_ctrls.perBankRdBursts::1            621152                       # Per bank write bursts
system.mem_ctrls.perBankRdBursts::2            622601                       # Per bank write bursts
system.mem_ctrls.perBankRdBursts::3            633011                       # Per bank write bursts
system.mem_ctrls.perBankRdBursts::4            610945                       # Per bank write bursts
system.mem_ctrls.perBankRdBursts::5            615866                       # Per bank write bursts
system.mem_ctrls.perBankRdBursts::6            619715                       # Per bank write bursts
system.mem_ctrls.perBankRdBursts::7            611586                       # Per bank write bursts
system.mem_ctrls.perBankRdBursts::8            620158                       # Per bank write bursts
system.mem_ctrls.perBankRdBursts::9            615500                       # Per bank write bursts
system.mem_ctrls.perBankRdBursts::10           615164                       # Per bank write bursts
system.mem_ctrls.perBankRdBursts::11           623750                       # Per bank write bursts
system.mem_ctrls.perBankRdBursts::12           632656                       # Per bank write bursts
system.mem_ctrls.perBankRdBursts::13           637707                       # Per bank write bursts
system.mem_ctrls.perBankRdBursts::14           631576                       # Per bank write bursts
system.mem_ctrls.perBankRdBursts::15           634629                       # Per bank write bursts
system.mem_ctrls.perBankWrBursts::0             75518                       # Per bank write bursts
system.mem_ctrls.perBankWrBursts::1             74417                       # Per bank write bursts
system.mem_ctrls.perBankWrBursts::2             74479                       # Per bank write bursts
system.mem_ctrls.perBankWrBursts::3             79556                       # Per bank write bursts
system.mem_ctrls.perBankWrBursts::4             72180                       # Per bank write bursts
system.mem_ctrls.perBankWrBursts::5             69842                       # Per bank write bursts
system.mem_ctrls.perBankWrBursts::6             71881                       # Per bank write bursts
system.mem_ctrls.perBankWrBursts::7             69378                       # Per bank write bursts
system.mem_ctrls.perBankWrBursts::8             71008                       # Per bank write bursts
system.mem_ctrls.perBankWrBursts::9             69588                       # Per bank write bursts
system.mem_ctrls.perBankWrBursts::10            69421                       # Per bank write bursts
system.mem_ctrls.perBankWrBursts::11            72866                       # Per bank write bursts
system.mem_ctrls.perBankWrBursts::12            75307                       # Per bank write bursts
system.mem_ctrls.perBankWrBursts::13            75376                       # Per bank write bursts
system.mem_ctrls.perBankWrBursts::14            74928                       # Per bank write bursts
system.mem_ctrls.perBankWrBursts::15            75241                       # Per bank write bursts
system.mem_ctrls.numRdRetry                         0                       # Number of times read queue was full causing retry
system.mem_ctrls.numWrRetry                         0                       # Number of times write queue was full causing retry
system.mem_ctrls.totGap                  2027571194500                       # Total gap between requests
system.mem_ctrls.readPktSize::0                     0                       # Read request sizes (log2)
system.mem_ctrls.readPktSize::1                     0                       # Read request sizes (log2)
system.mem_ctrls.readPktSize::2                     0                       # Read request sizes (log2)
system.mem_ctrls.readPktSize::3                     0                       # Read request sizes (log2)
system.mem_ctrls.readPktSize::4                     0                       # Read request sizes (log2)
system.mem_ctrls.readPktSize::5               9991628                       # Read request sizes (log2)
system.mem_ctrls.readPktSize::6                     0                       # Read request sizes (log2)
system.mem_ctrls.writePktSize::0                    0                       # Write request sizes (log2)
system.mem_ctrls.writePktSize::1                    0                       # Write request sizes (log2)
system.mem_ctrls.writePktSize::2                    0                       # Write request sizes (log2)
system.mem_ctrls.writePktSize::3                    0                       # Write request sizes (log2)
system.mem_ctrls.writePktSize::4                    0                       # Write request sizes (log2)
system.mem_ctrls.writePktSize::5              1232543                       # Write request sizes (log2)
system.mem_ctrls.writePktSize::6                    0                       # Write request sizes (log2)
system.mem_ctrls.rdQLenPdf::0                 9986745                       # What read queue length does an incoming req see
system.mem_ctrls.rdQLenPdf::1                       0                       # What read queue length does an incoming req see
system.mem_ctrls.rdQLenPdf::2                       0                       # What read queue length does an incoming req see
system.mem_ctrls.rdQLenPdf::3                       0                       # What read queue length does an incoming req see
system.mem_ctrls.rdQLenPdf::4                       0                       # What read queue length does an incoming req see
system.mem_ctrls.rdQLenPdf::5                       0                       # What read queue length does an incoming req see
system.mem_ctrls.rdQLenPdf::6                       0                       # What read queue length does an incoming req see
system.mem_ctrls.rdQLenPdf::7                       0                       # What read queue length does an incoming req see
system.mem_ctrls.rdQLenPdf::8                       0                       # What read queue length does an incoming req see
system.mem_ctrls.rdQLenPdf::9                       0                       # What read queue length does an incoming req see
system.mem_ctrls.rdQLenPdf::10                      0                       # What read queue length does an incoming req see
system.mem_ctrls.rdQLenPdf::11                      0                       # What read queue length does an incoming req see
system.mem_ctrls.rdQLenPdf::12                      0                       # What read queue length does an incoming req see
system.mem_ctrls.rdQLenPdf::13                      0                       # What read queue length does an incoming req see
system.mem_ctrls.rdQLenPdf::14                      0                       # What read queue length does an incoming req see
system.mem_ctrls.rdQLenPdf::15                      0                       # What read queue length does an incoming req see
system.mem_ctrls.rdQLenPdf::16                      0                       # What read queue length does an incoming req see
system.mem_ctrls.rdQLenPdf::17                      0                       # What read queue length does an incoming req see
system.mem_ctrls.rdQLenPdf::18                      0                       # What read queue length does an incoming req see
system.mem_ctrls.rdQLenPdf::19                      0                       # What read queue length does an incoming req see
system.mem_ctrls.rdQLenPdf::20                      0                       # What read queue length does an incoming req see
system.mem_ctrls.rdQLenPdf::21                      0                       # What read queue length does an incoming req see
system.mem_ctrls.rdQLenPdf::22                      0                       # What read queue length does an incoming req see
system.mem_ctrls.rdQLenPdf::23                      0                       # What read queue length does an incoming req see
system.mem_ctrls.rdQLenPdf::24                      0                       # What read queue length does an incoming req see
system.mem_ctrls.rdQLenPdf::25                      0                       # What read queue length does an incoming req see
system.mem_ctrls.rdQLenPdf::26                      0                       # What read queue length does an incoming req see
system.mem_ctrls.rdQLenPdf::27                      0                       # What read queue length does an incoming req see
system.mem_ctrls.rdQLenPdf::28                      0                       # What read queue length does an incoming req see
system.mem_ctrls.rdQLenPdf::29                      0                       # What read queue length does an incoming req see
system.mem_ctrls.rdQLenPdf::30                      0                       # What read queue length does an incoming req see
system.mem_ctrls.rdQLenPdf::31                      0                       # What read queue length does an incoming req see
system.mem_ctrls.wrQLenPdf::0                       1                       # What write queue length does an incoming req see
system.mem_ctrls.wrQLenPdf::1                       1                       # What write queue length does an incoming req see
system.mem_ctrls.wrQLenPdf::2                       1                       # What write queue length does an incoming req see
system.mem_ctrls.wrQLenPdf::3                       1                       # What write queue length does an incoming req see
system.mem_ctrls.wrQLenPdf::4                       1                       # What write queue length does an incoming req see
system.mem_ctrls.wrQLenPdf::5                       1                       # What write queue length does an incoming req see
system.mem_ctrls.wrQLenPdf::6                       1                       # What write queue length does an incoming req see
system.mem_ctrls.wrQLenPdf::7                       1                       # What write queue length does an incoming req see
system.mem_ctrls.wrQLenPdf::8                       1                       # What write queue length does an incoming req see
system.mem_ctrls.wrQLenPdf::9                       1                       # What write queue length does an incoming req see
system.mem_ctrls.wrQLenPdf::10                      1                       # What write queue length does an incoming req see
system.mem_ctrls.wrQLenPdf::11                      1                       # What write queue length does an incoming req see
system.mem_ctrls.wrQLenPdf::12                      1                       # What write queue length does an incoming req see
system.mem_ctrls.wrQLenPdf::13                      1                       # What write queue length does an incoming req see
system.mem_ctrls.wrQLenPdf::14                      1                       # What write queue length does an incoming req see
system.mem_ctrls.wrQLenPdf::15                  17603                       # What write queue length does an incoming req see
system.mem_ctrls.wrQLenPdf::16                  18851                       # What write queue length does an incoming req see
system.mem_ctrls.wrQLenPdf::17                  70890                       # What write queue length does an incoming req see
system.mem_ctrls.wrQLenPdf::18                  70909                       # What write queue length does an incoming req see
system.mem_ctrls.wrQLenPdf::19                  70910                       # What write queue length does an incoming req see
system.mem_ctrls.wrQLenPdf::20                  70910                       # What write queue length does an incoming req see
system.mem_ctrls.wrQLenPdf::21                  70909                       # What write queue length does an incoming req see
system.mem_ctrls.wrQLenPdf::22                  70909                       # What write queue length does an incoming req see
system.mem_ctrls.wrQLenPdf::23                  70909                       # What write queue length does an incoming req see
system.mem_ctrls.wrQLenPdf::24                  70908                       # What write queue length does an incoming req see
system.mem_ctrls.wrQLenPdf::25                  70909                       # What write queue length does an incoming req see
system.mem_ctrls.wrQLenPdf::26                  70909                       # What write queue length does an incoming req see
system.mem_ctrls.wrQLenPdf::27                  70910                       # What write queue length does an incoming req see
system.mem_ctrls.wrQLenPdf::28                  70910                       # What write queue length does an incoming req see
system.mem_ctrls.wrQLenPdf::29                  70917                       # What write queue length does an incoming req see
system.mem_ctrls.wrQLenPdf::30                  70911                       # What write queue length does an incoming req see
system.mem_ctrls.wrQLenPdf::31                  70911                       # What write queue length does an incoming req see
system.mem_ctrls.wrQLenPdf::32                  70908                       # What write queue length does an incoming req see
system.mem_ctrls.wrQLenPdf::33                      0                       # What write queue length does an incoming req see
system.mem_ctrls.wrQLenPdf::34                      0                       # What write queue length does an incoming req see
system.mem_ctrls.wrQLenPdf::35                      0                       # What write queue length does an incoming req see
system.mem_ctrls.wrQLenPdf::36                      0                       # What write queue length does an incoming req see
system.mem_ctrls.wrQLenPdf::37                      0                       # What write queue length does an incoming req see
system.mem_ctrls.wrQLenPdf::38                      0                       # What write queue length does an incoming req see
system.mem_ctrls.wrQLenPdf::39                      0                       # What write queue length does an incoming req see
system.mem_ctrls.wrQLenPdf::40                      0                       # What write queue length does an incoming req see
system.mem_ctrls.wrQLenPdf::41                      0                       # What write queue length does an incoming req see
system.mem_ctrls.wrQLenPdf::42                      0                       # What write queue length does an incoming req see
system.mem_ctrls.wrQLenPdf::43                      0                       # What write queue length does an incoming req see
system.mem_ctrls.wrQLenPdf::44                      0                       # What write queue length does an incoming req see
system.mem_ctrls.wrQLenPdf::45                      0                       # What write queue length does an incoming req see
system.mem_ctrls.wrQLenPdf::46                      0                       # What write queue length does an incoming req see
system.mem_ctrls.wrQLenPdf::47                      0                       # What write queue length does an incoming req see
system.mem_ctrls.wrQLenPdf::48                      0                       # What write queue length does an incoming req see
system.mem_ctrls.wrQLenPdf::49                      0                       # What write queue length does an incoming req see
system.mem_ctrls.wrQLenPdf::50                      0                       # What write queue length does an incoming req see
system.mem_ctrls.wrQLenPdf::51                      0                       # What write queue length does an incoming req see
system.mem_ctrls.wrQLenPdf::52                      0                       # What write queue length does an incoming req see
system.mem_ctrls.wrQLenPdf::53                      0                       # What write queue length does an incoming req see
system.mem_ctrls.wrQLenPdf::54                      0                       # What write queue length does an incoming req see
system.mem_ctrls.wrQLenPdf::55                      0                       # What write queue length does an incoming req see
system.mem_ctrls.wrQLenPdf::56                      0                       # What write queue length does an incoming req see
system.mem_ctrls.wrQLenPdf::57                      0                       # What write queue length does an incoming req see
system.mem_ctrls.wrQLenPdf::58                      0                       # What write queue length does an incoming req see
system.mem_ctrls.wrQLenPdf::59                      0                       # What write queue length does an incoming req see
system.mem_ctrls.wrQLenPdf::60                      0                       # What write queue length does an incoming req see
system.mem_ctrls.wrQLenPdf::61                      0                       # What write queue length does an incoming req see
system.mem_ctrls.wrQLenPdf::62                      0                       # What write queue length does an incoming req see
system.mem_ctrls.wrQLenPdf::63                      0                       # What write queue length does an incoming req see
system.mem_ctrls.bytesPerActivate::samples      5559919                       # Bytes accessed per row activation
system.mem_ctrls.bytesPerActivate::mean    128.436185                       # Bytes accessed per row activation
system.mem_ctrls.bytesPerActivate::gmean   109.980314                       # Bytes accessed per row activation
system.mem_ctrls.bytesPerActivate::stdev   120.286824                       # Bytes accessed per row activation
system.mem_ctrls.bytesPerActivate::0-127      1745486     31.39%     31.39% # Bytes accessed per row activation
system.mem_ctrls.bytesPerActivate::128-255      3582361     64.43%     95.83% # Bytes accessed per row activation
system.mem_ctrls.bytesPerActivate::256-383        94543      1.70%     97.53% # Bytes accessed per row activation
system.mem_ctrls.bytesPerActivate::384-511        26687      0.48%     98.01% # Bytes accessed per row activation
system.mem_ctrls.bytesPerActivate::512-639        14801      0.27%     98.27% # Bytes accessed per row activation
system.mem_ctrls.bytesPerActivate::640-767        11745      0.21%     98.48% # Bytes accessed per row activation
system.mem_ctrls.bytesPerActivate::768-895        10168      0.18%     98.67% # Bytes accessed per row activation
system.mem_ctrls.bytesPerActivate::896-1023         8884      0.16%     98.83% # Bytes accessed per row activation
system.mem_ctrls.bytesPerActivate::1024-1151        65244      1.17%    100.00% # Bytes accessed per row activation
system.mem_ctrls.bytesPerActivate::total      5559919                       # Bytes accessed per row activation
system.mem_ctrls.rdPerTurnAround::samples        70908                       # Reads before turning the bus around for writes
system.mem_ctrls.rdPerTurnAround::mean     140.840032                       # Reads before turning the bus around for writes
system.mem_ctrls.rdPerTurnAround::gmean     75.494743                       # Reads before turning the bus around for writes
system.mem_ctrls.rdPerTurnAround::stdev    191.368949                       # Reads before turning the bus around for writes
system.mem_ctrls.rdPerTurnAround::0-1023        70800     99.85%     99.85% # Reads before turning the bus around for writes
system.mem_ctrls.rdPerTurnAround::1024-2047          107      0.15%    100.00% # Reads before turning the bus around for writes
system.mem_ctrls.rdPerTurnAround::23552-24575            1      0.00%    100.00% # Reads before turning the bus around for writes
system.mem_ctrls.rdPerTurnAround::total         70908                       # Reads before turning the bus around for writes
system.mem_ctrls.wrPerTurnAround::samples        70908                       # Writes before turning the bus around for reads
system.mem_ctrls.wrPerTurnAround::mean      16.514159                       # Writes before turning the bus around for reads
system.mem_ctrls.wrPerTurnAround::gmean     16.492380                       # Writes before turning the bus around for reads
system.mem_ctrls.wrPerTurnAround::stdev      0.864073                       # Writes before turning the bus around for reads
system.mem_ctrls.wrPerTurnAround::16            52058     73.42%     73.42% # Writes before turning the bus around for reads
system.mem_ctrls.wrPerTurnAround::17             1248      1.76%     75.18% # Writes before turning the bus around for reads
system.mem_ctrls.wrPerTurnAround::18            17596     24.82%     99.99% # Writes before turning the bus around for reads
system.mem_ctrls.wrPerTurnAround::19                6      0.01%    100.00% # Writes before turning the bus around for reads
system.mem_ctrls.wrPerTurnAround::total         70908                       # Writes before turning the bus around for reads
system.mem_ctrls.totQLat                 231773273000                       # Total ticks spent queuing
system.mem_ctrls.totMemAccLat            419024741750                       # Total ticks spent from burst creation until serviced by the DRAM
system.mem_ctrls.totBusLat                49933725000                       # Total ticks spent in databus transfers
system.mem_ctrls.avgQLat                     23208.09                       # Average queueing delay per DRAM burst
system.mem_ctrls.avgBusLat                    5000.00                       # Average bus latency per DRAM burst
system.mem_ctrls.avgMemAccLat                41958.09                       # Average memory access latency per DRAM burst
system.mem_ctrls.avgRdBW                       315.23                       # Average DRAM read bandwidth in MiByte/s
system.mem_ctrls.avgWrBW                        36.96                       # Average achieved write bandwidth in MiByte/s
system.mem_ctrls.avgRdBWSys                    157.69                       # Average system read bandwidth in MiByte/s
system.mem_ctrls.avgWrBWSys                     19.45                       # Average system write bandwidth in MiByte/s
system.mem_ctrls.peakBW                      12800.00                       # Theoretical peak bandwidth in MiByte/s
system.mem_ctrls.busUtil                         2.75                       # Data bus utilization in percentage
system.mem_ctrls.busUtilRead                     2.46                       # Data bus utilization in percentage for reads
system.mem_ctrls.busUtilWrite                    0.29                       # Data bus utilization in percentage for writes
system.mem_ctrls.avgRdQLen                       1.00                       # Average read queue length when enqueuing
system.mem_ctrls.avgWrQLen                      25.10                       # Average write queue length when enqueuing
system.mem_ctrls.readRowHits                  5061469                       # Number of row buffer hits during reads
system.mem_ctrls.writeRowHits                  536343                       # Number of row buffer hits during writes
system.mem_ctrls.readRowHitRate                 50.68                       # Row buffer hit rate for reads
system.mem_ctrls.writeRowHitRate                45.80                       # Row buffer hit rate for writes
system.mem_ctrls.avgGap                     180643.29                       # Average gap between requests
system.mem_ctrls.pageHitRate                    50.17                       # Row buffer hit rate, read and write combined
system.mem_ctrls_0.actEnergy              19745191620                       # Energy for activate commands per rank (pJ)
system.mem_ctrls_0.preEnergy              10494818235                       # Energy for precharge commands per rank (pJ)
system.mem_ctrls_0.readEnergy             35525819700                       # Energy for read commands per rank (pJ)
system.mem_ctrls_0.writeEnergy             3065450220                       # Energy for write commands per rank (pJ)
system.mem_ctrls_0.refreshEnergy         151537033440.000031                       # Energy for refresh commands per rank (pJ)
system.mem_ctrls_0.actBackEnergy         123584636640                       # Energy for active background per rank (pJ)
system.mem_ctrls_0.preBackEnergy           4931633280                       # Energy for precharge background per rank (pJ)
system.mem_ctrls_0.actPowerDownEnergy    586152852090                       # Energy for active power-down per rank (pJ)
system.mem_ctrls_0.prePowerDownEnergy     88094043360                       # Energy for precharge power-down per rank (pJ)
system.mem_ctrls_0.selfRefreshEnergy      64153016385                       # Energy for self refresh per rank (pJ)
system.mem_ctrls_0.totalEnergy           1087301906040                       # Total energy per rank (pJ)
system.mem_ctrls_0.averagePower            536.253733                       # Core power per rank (mW)
system.mem_ctrls_0.totalIdleTime         1743682774750                       # Total Idle time Per DRAM Rank
system.mem_ctrls_0.memoryStateTime::IDLE   5773890750                       # Time in different power states
system.mem_ctrls_0.memoryStateTime::REF   64204986000                       # Time in different power states
system.mem_ctrls_0.memoryStateTime::SREF 228853609000                       # Time in different power states
system.mem_ctrls_0.memoryStateTime::PRE_PDN 229412778250                       # Time in different power states
system.mem_ctrls_0.memoryStateTime::ACT  213918375000                       # Time in different power states
system.mem_ctrls_0.memoryStateTime::ACT_PDN 1285424858500                       # Time in different power states
system.mem_ctrls_1.actEnergy              19952630040                       # Energy for activate commands per rank (pJ)
system.mem_ctrls_1.preEnergy              10605074370                       # Energy for precharge commands per rank (pJ)
system.mem_ctrls_1.readEnergy             35779539600                       # Energy for read commands per rank (pJ)
system.mem_ctrls_1.writeEnergy             3047096700                       # Energy for write commands per rank (pJ)
system.mem_ctrls_1.refreshEnergy         151512447840.000031                       # Energy for refresh commands per rank (pJ)
system.mem_ctrls_1.actBackEnergy         124155690570                       # Energy for active background per rank (pJ)
system.mem_ctrls_1.preBackEnergy           5068291200                       # Energy for precharge background per rank (pJ)
system.mem_ctrls_1.actPowerDownEnergy    584906256960                       # Energy for active power-down per rank (pJ)
system.mem_ctrls_1.prePowerDownEnergy     89165732160                       # Energy for precharge power-down per rank (pJ)
system.mem_ctrls_1.selfRefreshEnergy      63602761995                       # Energy for self refresh per rank (pJ)
system.mem_ctrls_1.totalEnergy           1087814099565                       # Total energy per rank (pJ)
system.mem_ctrls_1.averagePower            536.506344                       # Core power per rank (mW)
system.mem_ctrls_1.totalIdleTime         1742070562250                       # Total Idle time Per DRAM Rank
system.mem_ctrls_1.memoryStateTime::IDLE   5766987500                       # Time in different power states
system.mem_ctrls_1.memoryStateTime::REF   64193188000                       # Time in different power states
system.mem_ctrls_1.memoryStateTime::SREF 227185740250                       # Time in different power states
system.mem_ctrls_1.memoryStateTime::PRE_PDN 232201666000                       # Time in different power states
system.mem_ctrls_1.memoryStateTime::ACT  215550324500                       # Time in different power states
system.mem_ctrls_1.memoryStateTime::ACT_PDN 1282690591250                       # Time in different power states
system.pwrStateResidencyTicks::UNDEFINED 2027588497500                       # Cumulative time (in ticks) in various power states
system.cpu_voltage_domain.voltage                   1                       # Voltage in Volts
system.cpu_clk_domain.clock                       500                       # Clock period in ticks
system.cpu.dtb.walker.pwrStateResidencyTicks::UNDEFINED 2027588497500                       # Cumulative time (in ticks) in various power states
system.cpu.apic_clk_domain.clock                 8000                       # Clock period in ticks
system.cpu.interrupts.pwrStateResidencyTicks::UNDEFINED 2027588497500                       # Cumulative time (in ticks) in various power states
system.cpu.itb.walker.pwrStateResidencyTicks::UNDEFINED 2027588497500                       # Cumulative time (in ticks) in various power states
system.cpu.workload.num_syscalls                  168                       # Number of system calls
system.cpu.pwrStateResidencyTicks::ON    2027588497500                       # Cumulative time (in ticks) in various power states
system.cpu.numCycles                       4055176995                       # number of cpu cycles simulated
system.cpu.numWorkItemsStarted                      0                       # number of work items this cpu started
system.cpu.numWorkItemsCompleted                    0                       # number of work items this cpu completed
system.cpu.committedInsts                   500000000                       # Number of instructions committed
system.cpu.committedOps                     876313781                       # Number of ops (including micro ops) committed
system.cpu.num_int_alu_accesses             872966677                       # Number of integer alu accesses
system.cpu.num_fp_alu_accesses                2882231                       # Number of float alu accesses
system.cpu.num_func_calls                    11025254                       # number of times a function call or return occured
system.cpu.num_conditional_control_insts     75981009                       # number of instructions that are conditional controls
system.cpu.num_int_insts                    872966677                       # number of integer instructions
system.cpu.num_fp_insts                       2882231                       # number of float instructions
system.cpu.num_int_register_reads          1835046952                       # number of times the integer registers were read
system.cpu.num_int_register_writes          703076416                       # number of times the integer registers were written
system.cpu.num_fp_register_reads              4386063                       # number of times the floating registers were read
system.cpu.num_fp_register_writes             2464405                       # number of times the floating registers were written
system.cpu.num_cc_register_reads            441654669                       # number of times the CC registers were read
system.cpu.num_cc_register_writes           253505512                       # number of times the CC registers were written
system.cpu.num_mem_refs                     293763598                       # number of memory refs
system.cpu.num_load_insts                   221285042                       # Number of load instructions
system.cpu.num_store_insts                   72478556                       # Number of store instructions
system.cpu.num_idle_cycles                          0                       # Number of idle cycles
system.cpu.num_busy_cycles                 4055176995                       # Number of busy cycles
system.cpu.not_idle_fraction                        1                       # Percentage of non-idle cycles
system.cpu.idle_fraction                            0                       # Percentage of idle cycles
system.cpu.Branches                          97901001                       # Number of branches fetched
system.cpu.op_class::No_OpClass                939430      0.11%      0.11% # Class of executed instruction
system.cpu.op_class::IntAlu                 578420252     66.01%     66.11% # Class of executed instruction
system.cpu.op_class::IntMult                   907073      0.10%     66.22% # Class of executed instruction
system.cpu.op_class::IntDiv                        42      0.00%     66.22% # Class of executed instruction
system.cpu.op_class::FloatAdd                 2283386      0.26%     66.48% # Class of executed instruction
system.cpu.op_class::FloatCmp                       0      0.00%     66.48% # Class of executed instruction
system.cpu.op_class::FloatCvt                       0      0.00%     66.48% # Class of executed instruction
system.cpu.op_class::FloatMult                      0      0.00%     66.48% # Class of executed instruction
system.cpu.op_class::FloatDiv                       0      0.00%     66.48% # Class of executed instruction
system.cpu.op_class::FloatSqrt                      0      0.00%     66.48% # Class of executed instruction
system.cpu.op_class::SimdAdd                        0      0.00%     66.48% # Class of executed instruction
system.cpu.op_class::SimdAddAcc                     0      0.00%     66.48% # Class of executed instruction
system.cpu.op_class::SimdAlu                        0      0.00%     66.48% # Class of executed instruction
system.cpu.op_class::SimdCmp                        0      0.00%     66.48% # Class of executed instruction
system.cpu.op_class::SimdCvt                        0      0.00%     66.48% # Class of executed instruction
system.cpu.op_class::SimdMisc                       0      0.00%     66.48% # Class of executed instruction
system.cpu.op_class::SimdMult                       0      0.00%     66.48% # Class of executed instruction
system.cpu.op_class::SimdMultAcc                    0      0.00%     66.48% # Class of executed instruction
system.cpu.op_class::SimdShift                      0      0.00%     66.48% # Class of executed instruction
system.cpu.op_class::SimdShiftAcc                   0      0.00%     66.48% # Class of executed instruction
system.cpu.op_class::SimdSqrt                       0      0.00%     66.48% # Class of executed instruction
system.cpu.op_class::SimdFloatAdd                   0      0.00%     66.48% # Class of executed instruction
system.cpu.op_class::SimdFloatAlu                   0      0.00%     66.48% # Class of executed instruction
system.cpu.op_class::SimdFloatCmp                   0      0.00%     66.48% # Class of executed instruction
system.cpu.op_class::SimdFloatCvt                   0      0.00%     66.48% # Class of executed instruction
system.cpu.op_class::SimdFloatDiv                   0      0.00%     66.48% # Class of executed instruction
system.cpu.op_class::SimdFloatMisc                  0      0.00%     66.48% # Class of executed instruction
system.cpu.op_class::SimdFloatMult                  0      0.00%     66.48% # Class of executed instruction
system.cpu.op_class::SimdFloatMultAcc               0      0.00%     66.48% # Class of executed instruction
system.cpu.op_class::SimdFloatSqrt                  0      0.00%     66.48% # Class of executed instruction
system.cpu.op_class::MemRead                221285042     25.25%     91.73% # Class of executed instruction
system.cpu.op_class::MemWrite                72478556      8.27%    100.00% # Class of executed instruction
system.cpu.op_class::IprAccess                      0      0.00%    100.00% # Class of executed instruction
system.cpu.op_class::InstPrefetch                   0      0.00%    100.00% # Class of executed instruction
system.cpu.op_class::total                  876313781                       # Class of executed instruction
system.cpu.dcache.tags.pwrStateResidencyTicks::UNDEFINED 2027588497500                       # Cumulative time (in ticks) in various power states
system.cpu.dcache.tags.replacements          16318885                       # number of replacements
system.cpu.dcache.tags.tagsinuse          2047.504069                       # Cycle average of tags in use
system.cpu.dcache.tags.total_refs           277490916                       # Total number of references to valid blocks.
system.cpu.dcache.tags.sampled_refs          16320933                       # Sample count of references to valid blocks.
system.cpu.dcache.tags.avg_refs             17.002148                       # Average number of references to valid blocks.
system.cpu.dcache.tags.warmup_cycle        1326352500                       # Cycle when the warmup percentage was hit.
system.cpu.dcache.tags.occ_blocks::cpu.data  2047.504069                       # Average occupied blocks per requestor
system.cpu.dcache.tags.occ_percent::cpu.data     0.999758                       # Average percentage of cache occupancy
system.cpu.dcache.tags.occ_percent::total     0.999758                       # Average percentage of cache occupancy
system.cpu.dcache.tags.occ_task_id_blocks::1024         2048                       # Occupied blocks per task id
system.cpu.dcache.tags.age_task_id_blocks_1024::0            4                       # Occupied blocks per task id
system.cpu.dcache.tags.age_task_id_blocks_1024::1          812                       # Occupied blocks per task id
system.cpu.dcache.tags.age_task_id_blocks_1024::2         1190                       # Occupied blocks per task id
system.cpu.dcache.tags.age_task_id_blocks_1024::3           41                       # Occupied blocks per task id
system.cpu.dcache.tags.age_task_id_blocks_1024::4            1                       # Occupied blocks per task id
system.cpu.dcache.tags.occ_task_id_percent::1024            1                       # Percentage of cache occupancy per task id
system.cpu.dcache.tags.tag_accesses         603944631                       # Number of tag accesses
system.cpu.dcache.tags.data_accesses        603944631                       # Number of data accesses
system.cpu.dcache.pwrStateResidencyTicks::UNDEFINED 2027588497500                       # Cumulative time (in ticks) in various power states
system.cpu.dcache.ReadReq_hits::cpu.data    205855337                       # number of ReadReq hits
system.cpu.dcache.ReadReq_hits::total       205855337                       # number of ReadReq hits
system.cpu.dcache.WriteReq_hits::cpu.data     71635579                       # number of WriteReq hits
system.cpu.dcache.WriteReq_hits::total       71635579                       # number of WriteReq hits
system.cpu.dcache.demand_hits::cpu.data     277490916                       # number of demand (read+write) hits
system.cpu.dcache.demand_hits::total        277490916                       # number of demand (read+write) hits
system.cpu.dcache.overall_hits::cpu.data    277490916                       # number of overall hits
system.cpu.dcache.overall_hits::total       277490916                       # number of overall hits
system.cpu.dcache.ReadReq_misses::cpu.data     15477953                       # number of ReadReq misses
system.cpu.dcache.ReadReq_misses::total      15477953                       # number of ReadReq misses
system.cpu.dcache.WriteReq_misses::cpu.data       842980                       # number of WriteReq misses
system.cpu.dcache.WriteReq_misses::total       842980                       # number of WriteReq misses
system.cpu.dcache.demand_misses::cpu.data     16320933                       # number of demand (read+write) misses
system.cpu.dcache.demand_misses::total       16320933                       # number of demand (read+write) misses
system.cpu.dcache.overall_misses::cpu.data     16320933                       # number of overall misses
system.cpu.dcache.overall_misses::total      16320933                       # number of overall misses
system.cpu.dcache.ReadReq_miss_latency::cpu.data 989300118500                       # number of ReadReq miss cycles
system.cpu.dcache.ReadReq_miss_latency::total 989300118500                       # number of ReadReq miss cycles
system.cpu.dcache.WriteReq_miss_latency::cpu.data  45895717500                       # number of WriteReq miss cycles
system.cpu.dcache.WriteReq_miss_latency::total  45895717500                       # number of WriteReq miss cycles
system.cpu.dcache.demand_miss_latency::cpu.data 1035195836000                       # number of demand (read+write) miss cycles
system.cpu.dcache.demand_miss_latency::total 1035195836000                       # number of demand (read+write) miss cycles
system.cpu.dcache.overall_miss_latency::cpu.data 1035195836000                       # number of overall miss cycles
system.cpu.dcache.overall_miss_latency::total 1035195836000                       # number of overall miss cycles
system.cpu.dcache.ReadReq_accesses::cpu.data    221333290                       # number of ReadReq accesses(hits+misses)
system.cpu.dcache.ReadReq_accesses::total    221333290                       # number of ReadReq accesses(hits+misses)
system.cpu.dcache.WriteReq_accesses::cpu.data     72478559                       # number of WriteReq accesses(hits+misses)
system.cpu.dcache.WriteReq_accesses::total     72478559                       # number of WriteReq accesses(hits+misses)
system.cpu.dcache.demand_accesses::cpu.data    293811849                       # number of demand (read+write) accesses
system.cpu.dcache.demand_accesses::total    293811849                       # number of demand (read+write) accesses
system.cpu.dcache.overall_accesses::cpu.data    293811849                       # number of overall (read+write) accesses
system.cpu.dcache.overall_accesses::total    293811849                       # number of overall (read+write) accesses
system.cpu.dcache.ReadReq_miss_rate::cpu.data     0.069931                       # miss rate for ReadReq accesses
system.cpu.dcache.ReadReq_miss_rate::total     0.069931                       # miss rate for ReadReq accesses
system.cpu.dcache.WriteReq_miss_rate::cpu.data     0.011631                       # miss rate for WriteReq accesses
system.cpu.dcache.WriteReq_miss_rate::total     0.011631                       # miss rate for WriteReq accesses
system.cpu.dcache.demand_miss_rate::cpu.data     0.055549                       # miss rate for demand accesses
system.cpu.dcache.demand_miss_rate::total     0.055549                       # miss rate for demand accesses
system.cpu.dcache.overall_miss_rate::cpu.data     0.055549                       # miss rate for overall accesses
system.cpu.dcache.overall_miss_rate::total     0.055549                       # miss rate for overall accesses
system.cpu.dcache.ReadReq_avg_miss_latency::cpu.data 63916.728427                       # average ReadReq miss latency
system.cpu.dcache.ReadReq_avg_miss_latency::total 63916.728427                       # average ReadReq miss latency
system.cpu.dcache.WriteReq_avg_miss_latency::cpu.data 54444.610192                       # average WriteReq miss latency
system.cpu.dcache.WriteReq_avg_miss_latency::total 54444.610192                       # average WriteReq miss latency
system.cpu.dcache.demand_avg_miss_latency::cpu.data 63427.491308                       # average overall miss latency
system.cpu.dcache.demand_avg_miss_latency::total 63427.491308                       # average overall miss latency
system.cpu.dcache.overall_avg_miss_latency::cpu.data 63427.491308                       # average overall miss latency
system.cpu.dcache.overall_avg_miss_latency::total 63427.491308                       # average overall miss latency
system.cpu.dcache.blocked_cycles::no_mshrs            0                       # number of cycles access was blocked
system.cpu.dcache.blocked_cycles::no_targets            0                       # number of cycles access was blocked
system.cpu.dcache.blocked::no_mshrs                 0                       # number of cycles access was blocked
system.cpu.dcache.blocked::no_targets               0                       # number of cycles access was blocked
system.cpu.dcache.avg_blocked_cycles::no_mshrs          nan                       # average number of cycles each access was blocked
system.cpu.dcache.avg_blocked_cycles::no_targets          nan                       # average number of cycles each access was blocked
system.cpu.dcache.writebacks::writebacks      4471809                       # number of writebacks
system.cpu.dcache.writebacks::total           4471809                       # number of writebacks
system.cpu.dcache.ReadReq_mshr_misses::cpu.data     15477953                       # number of ReadReq MSHR misses
system.cpu.dcache.ReadReq_mshr_misses::total     15477953                       # number of ReadReq MSHR misses
system.cpu.dcache.WriteReq_mshr_misses::cpu.data       842980                       # number of WriteReq MSHR misses
system.cpu.dcache.WriteReq_mshr_misses::total       842980                       # number of WriteReq MSHR misses
system.cpu.dcache.demand_mshr_misses::cpu.data     16320933                       # number of demand (read+write) MSHR misses
system.cpu.dcache.demand_mshr_misses::total     16320933                       # number of demand (read+write) MSHR misses
system.cpu.dcache.overall_mshr_misses::cpu.data     16320933                       # number of overall MSHR misses
system.cpu.dcache.overall_mshr_misses::total     16320933                       # number of overall MSHR misses
system.cpu.dcache.ReadReq_mshr_miss_latency::cpu.data 973822165500                       # number of ReadReq MSHR miss cycles
system.cpu.dcache.ReadReq_mshr_miss_latency::total 973822165500                       # number of ReadReq MSHR miss cycles
system.cpu.dcache.WriteReq_mshr_miss_latency::cpu.data  45052737500                       # number of WriteReq MSHR miss cycles
system.cpu.dcache.WriteReq_mshr_miss_latency::total  45052737500                       # number of WriteReq MSHR miss cycles
system.cpu.dcache.demand_mshr_miss_latency::cpu.data 1018874903000                       # number of demand (read+write) MSHR miss cycles
system.cpu.dcache.demand_mshr_miss_latency::total 1018874903000                       # number of demand (read+write) MSHR miss cycles
system.cpu.dcache.overall_mshr_miss_latency::cpu.data 1018874903000                       # number of overall MSHR miss cycles
system.cpu.dcache.overall_mshr_miss_latency::total 1018874903000                       # number of overall MSHR miss cycles
system.cpu.dcache.ReadReq_mshr_miss_rate::cpu.data     0.069931                       # mshr miss rate for ReadReq accesses
system.cpu.dcache.ReadReq_mshr_miss_rate::total     0.069931                       # mshr miss rate for ReadReq accesses
system.cpu.dcache.WriteReq_mshr_miss_rate::cpu.data     0.011631                       # mshr miss rate for WriteReq accesses
system.cpu.dcache.WriteReq_mshr_miss_rate::total     0.011631                       # mshr miss rate for WriteReq accesses
system.cpu.dcache.demand_mshr_miss_rate::cpu.data     0.055549                       # mshr miss rate for demand accesses
system.cpu.dcache.demand_mshr_miss_rate::total     0.055549                       # mshr miss rate for demand accesses
system.cpu.dcache.overall_mshr_miss_rate::cpu.data     0.055549                       # mshr miss rate for overall accesses
system.cpu.dcache.overall_mshr_miss_rate::total     0.055549                       # mshr miss rate for overall accesses
system.cpu.dcache.ReadReq_avg_mshr_miss_latency::cpu.data 62916.728427                       # average ReadReq mshr miss latency
system.cpu.dcache.ReadReq_avg_mshr_miss_latency::total 62916.728427                       # average ReadReq mshr miss latency
system.cpu.dcache.WriteReq_avg_mshr_miss_latency::cpu.data 53444.610192                       # average WriteReq mshr miss latency
system.cpu.dcache.WriteReq_avg_mshr_miss_latency::total 53444.610192                       # average WriteReq mshr miss latency
system.cpu.dcache.demand_avg_mshr_miss_latency::cpu.data 62427.491308                       # average overall mshr miss latency
system.cpu.dcache.demand_avg_mshr_miss_latency::total 62427.491308                       # average overall mshr miss latency
system.cpu.dcache.overall_avg_mshr_miss_latency::cpu.data 62427.491308                       # average overall mshr miss latency
system.cpu.dcache.overall_avg_mshr_miss_latency::total 62427.491308                       # average overall mshr miss latency
system.cpu.dtb_walker_cache.tags.pwrStateResidencyTicks::UNDEFINED 2027588497500                       # Cumulative time (in ticks) in various power states
system.cpu.dtb_walker_cache.tags.replacements            0                       # number of replacements
system.cpu.dtb_walker_cache.tags.tagsinuse            0                       # Cycle average of tags in use
system.cpu.dtb_walker_cache.tags.total_refs            0                       # Total number of references to valid blocks.
system.cpu.dtb_walker_cache.tags.sampled_refs            0                       # Sample count of references to valid blocks.
system.cpu.dtb_walker_cache.tags.avg_refs          nan                       # Average number of references to valid blocks.
system.cpu.dtb_walker_cache.tags.warmup_cycle            0                       # Cycle when the warmup percentage was hit.
system.cpu.dtb_walker_cache.tags.tag_accesses            0                       # Number of tag accesses
system.cpu.dtb_walker_cache.tags.data_accesses            0                       # Number of data accesses
system.cpu.dtb_walker_cache.pwrStateResidencyTicks::UNDEFINED 2027588497500                       # Cumulative time (in ticks) in various power states
system.cpu.dtb_walker_cache.blocked_cycles::no_mshrs            0                       # number of cycles access was blocked
system.cpu.dtb_walker_cache.blocked_cycles::no_targets            0                       # number of cycles access was blocked
system.cpu.dtb_walker_cache.blocked::no_mshrs            0                       # number of cycles access was blocked
system.cpu.dtb_walker_cache.blocked::no_targets            0                       # number of cycles access was blocked
system.cpu.dtb_walker_cache.avg_blocked_cycles::no_mshrs          nan                       # average number of cycles each access was blocked
system.cpu.dtb_walker_cache.avg_blocked_cycles::no_targets          nan                       # average number of cycles each access was blocked
system.cpu.icache.tags.pwrStateResidencyTicks::UNDEFINED 2027588497500                       # Cumulative time (in ticks) in various power states
system.cpu.icache.tags.replacements           3126573                       # number of replacements
system.cpu.icache.tags.tagsinuse           255.996329                       # Cycle average of tags in use
system.cpu.icache.tags.total_refs           674191115                       # Total number of references to valid blocks.
system.cpu.icache.tags.sampled_refs           3126829                       # Sample count of references to valid blocks.
system.cpu.icache.tags.avg_refs            215.614962                       # Average number of references to valid blocks.
system.cpu.icache.tags.warmup_cycle         104631500                       # Cycle when the warmup percentage was hit.
system.cpu.icache.tags.occ_blocks::cpu.inst   255.996329                       # Average occupied blocks per requestor
system.cpu.icache.tags.occ_percent::cpu.inst     0.999986                       # Average percentage of cache occupancy
system.cpu.icache.tags.occ_percent::total     0.999986                       # Average percentage of cache occupancy
system.cpu.icache.tags.occ_task_id_blocks::1024          256                       # Occupied blocks per task id
system.cpu.icache.tags.age_task_id_blocks_1024::4          256                       # Occupied blocks per task id
system.cpu.icache.tags.occ_task_id_percent::1024            1                       # Percentage of cache occupancy per task id
system.cpu.icache.tags.tag_accesses        1357762717                       # Number of tag accesses
system.cpu.icache.tags.data_accesses       1357762717                       # Number of data accesses
system.cpu.icache.pwrStateResidencyTicks::UNDEFINED 2027588497500                       # Cumulative time (in ticks) in various power states
system.cpu.icache.ReadReq_hits::cpu.inst    674191115                       # number of ReadReq hits
system.cpu.icache.ReadReq_hits::total       674191115                       # number of ReadReq hits
system.cpu.icache.demand_hits::cpu.inst     674191115                       # number of demand (read+write) hits
system.cpu.icache.demand_hits::total        674191115                       # number of demand (read+write) hits
system.cpu.icache.overall_hits::cpu.inst    674191115                       # number of overall hits
system.cpu.icache.overall_hits::total       674191115                       # number of overall hits
system.cpu.icache.ReadReq_misses::cpu.inst      3126829                       # number of ReadReq misses
system.cpu.icache.ReadReq_misses::total       3126829                       # number of ReadReq misses
system.cpu.icache.demand_misses::cpu.inst      3126829                       # number of demand (read+write) misses
system.cpu.icache.demand_misses::total        3126829                       # number of demand (read+write) misses
system.cpu.icache.overall_misses::cpu.inst      3126829                       # number of overall misses
system.cpu.icache.overall_misses::total       3126829                       # number of overall misses
system.cpu.icache.ReadReq_miss_latency::cpu.inst  40739045500                       # number of ReadReq miss cycles
system.cpu.icache.ReadReq_miss_latency::total  40739045500                       # number of ReadReq miss cycles
system.cpu.icache.demand_miss_latency::cpu.inst  40739045500                       # number of demand (read+write) miss cycles
system.cpu.icache.demand_miss_latency::total  40739045500                       # number of demand (read+write) miss cycles
system.cpu.icache.overall_miss_latency::cpu.inst  40739045500                       # number of overall miss cycles
system.cpu.icache.overall_miss_latency::total  40739045500                       # number of overall miss cycles
system.cpu.icache.ReadReq_accesses::cpu.inst    677317944                       # number of ReadReq accesses(hits+misses)
system.cpu.icache.ReadReq_accesses::total    677317944                       # number of ReadReq accesses(hits+misses)
system.cpu.icache.demand_accesses::cpu.inst    677317944                       # number of demand (read+write) accesses
system.cpu.icache.demand_accesses::total    677317944                       # number of demand (read+write) accesses
system.cpu.icache.overall_accesses::cpu.inst    677317944                       # number of overall (read+write) accesses
system.cpu.icache.overall_accesses::total    677317944                       # number of overall (read+write) accesses
system.cpu.icache.ReadReq_miss_rate::cpu.inst     0.004616                       # miss rate for ReadReq accesses
system.cpu.icache.ReadReq_miss_rate::total     0.004616                       # miss rate for ReadReq accesses
system.cpu.icache.demand_miss_rate::cpu.inst     0.004616                       # miss rate for demand accesses
system.cpu.icache.demand_miss_rate::total     0.004616                       # miss rate for demand accesses
system.cpu.icache.overall_miss_rate::cpu.inst     0.004616                       # miss rate for overall accesses
system.cpu.icache.overall_miss_rate::total     0.004616                       # miss rate for overall accesses
system.cpu.icache.ReadReq_avg_miss_latency::cpu.inst 13028.869024                       # average ReadReq miss latency
system.cpu.icache.ReadReq_avg_miss_latency::total 13028.869024                       # average ReadReq miss latency
system.cpu.icache.demand_avg_miss_latency::cpu.inst 13028.869024                       # average overall miss latency
system.cpu.icache.demand_avg_miss_latency::total 13028.869024                       # average overall miss latency
system.cpu.icache.overall_avg_miss_latency::cpu.inst 13028.869024                       # average overall miss latency
system.cpu.icache.overall_avg_miss_latency::total 13028.869024                       # average overall miss latency
system.cpu.icache.blocked_cycles::no_mshrs            0                       # number of cycles access was blocked
system.cpu.icache.blocked_cycles::no_targets            0                       # number of cycles access was blocked
system.cpu.icache.blocked::no_mshrs                 0                       # number of cycles access was blocked
system.cpu.icache.blocked::no_targets               0                       # number of cycles access was blocked
system.cpu.icache.avg_blocked_cycles::no_mshrs          nan                       # average number of cycles each access was blocked
system.cpu.icache.avg_blocked_cycles::no_targets          nan                       # average number of cycles each access was blocked
system.cpu.icache.writebacks::writebacks      3126573                       # number of writebacks
system.cpu.icache.writebacks::total           3126573                       # number of writebacks
system.cpu.icache.ReadReq_mshr_misses::cpu.inst      3126829                       # number of ReadReq MSHR misses
system.cpu.icache.ReadReq_mshr_misses::total      3126829                       # number of ReadReq MSHR misses
system.cpu.icache.demand_mshr_misses::cpu.inst      3126829                       # number of demand (read+write) MSHR misses
system.cpu.icache.demand_mshr_misses::total      3126829                       # number of demand (read+write) MSHR misses
system.cpu.icache.overall_mshr_misses::cpu.inst      3126829                       # number of overall MSHR misses
system.cpu.icache.overall_mshr_misses::total      3126829                       # number of overall MSHR misses
system.cpu.icache.ReadReq_mshr_miss_latency::cpu.inst  37612216500                       # number of ReadReq MSHR miss cycles
system.cpu.icache.ReadReq_mshr_miss_latency::total  37612216500                       # number of ReadReq MSHR miss cycles
system.cpu.icache.demand_mshr_miss_latency::cpu.inst  37612216500                       # number of demand (read+write) MSHR miss cycles
system.cpu.icache.demand_mshr_miss_latency::total  37612216500                       # number of demand (read+write) MSHR miss cycles
system.cpu.icache.overall_mshr_miss_latency::cpu.inst  37612216500                       # number of overall MSHR miss cycles
system.cpu.icache.overall_mshr_miss_latency::total  37612216500                       # number of overall MSHR miss cycles
system.cpu.icache.ReadReq_mshr_miss_rate::cpu.inst     0.004616                       # mshr miss rate for ReadReq accesses
system.cpu.icache.ReadReq_mshr_miss_rate::total     0.004616                       # mshr miss rate for ReadReq accesses
system.cpu.icache.demand_mshr_miss_rate::cpu.inst     0.004616                       # mshr miss rate for demand accesses
system.cpu.icache.demand_mshr_miss_rate::total     0.004616                       # mshr miss rate for demand accesses
system.cpu.icache.overall_mshr_miss_rate::cpu.inst     0.004616                       # mshr miss rate for overall accesses
system.cpu.icache.overall_mshr_miss_rate::total     0.004616                       # mshr miss rate for overall accesses
system.cpu.icache.ReadReq_avg_mshr_miss_latency::cpu.inst 12028.869024                       # average ReadReq mshr miss latency
system.cpu.icache.ReadReq_avg_mshr_miss_latency::total 12028.869024                       # average ReadReq mshr miss latency
system.cpu.icache.demand_avg_mshr_miss_latency::cpu.inst 12028.869024                       # average overall mshr miss latency
system.cpu.icache.demand_avg_mshr_miss_latency::total 12028.869024                       # average overall mshr miss latency
system.cpu.icache.overall_avg_mshr_miss_latency::cpu.inst 12028.869024                       # average overall mshr miss latency
system.cpu.icache.overall_avg_mshr_miss_latency::total 12028.869024                       # average overall mshr miss latency
system.cpu.itb_walker_cache.tags.pwrStateResidencyTicks::UNDEFINED 2027588497500                       # Cumulative time (in ticks) in various power states
system.cpu.itb_walker_cache.tags.replacements            0                       # number of replacements
system.cpu.itb_walker_cache.tags.tagsinuse            0                       # Cycle average of tags in use
system.cpu.itb_walker_cache.tags.total_refs            0                       # Total number of references to valid blocks.
system.cpu.itb_walker_cache.tags.sampled_refs            0                       # Sample count of references to valid blocks.
system.cpu.itb_walker_cache.tags.avg_refs          nan                       # Average number of references to valid blocks.
system.cpu.itb_walker_cache.tags.warmup_cycle            0                       # Cycle when the warmup percentage was hit.
system.cpu.itb_walker_cache.tags.tag_accesses            0                       # Number of tag accesses
system.cpu.itb_walker_cache.tags.data_accesses            0                       # Number of data accesses
system.cpu.itb_walker_cache.pwrStateResidencyTicks::UNDEFINED 2027588497500                       # Cumulative time (in ticks) in various power states
system.cpu.itb_walker_cache.blocked_cycles::no_mshrs            0                       # number of cycles access was blocked
system.cpu.itb_walker_cache.blocked_cycles::no_targets            0                       # number of cycles access was blocked
system.cpu.itb_walker_cache.blocked::no_mshrs            0                       # number of cycles access was blocked
system.cpu.itb_walker_cache.blocked::no_targets            0                       # number of cycles access was blocked
system.cpu.itb_walker_cache.avg_blocked_cycles::no_mshrs          nan                       # average number of cycles each access was blocked
system.cpu.itb_walker_cache.avg_blocked_cycles::no_targets          nan                       # average number of cycles each access was blocked
system.l2.tags.pwrStateResidencyTicks::UNDEFINED 2027588497500                       # Cumulative time (in ticks) in various power states
system.l2.tags.replacements                   9963484                       # number of replacements
system.l2.tags.tagsinuse                 32652.787992                       # Cycle average of tags in use
system.l2.tags.total_refs                    28895961                       # Total number of references to valid blocks.
system.l2.tags.sampled_refs                   9996252                       # Sample count of references to valid blocks.
system.l2.tags.avg_refs                      2.890680                       # Average number of references to valid blocks.
system.l2.tags.warmup_cycle               19433305000                       # Cycle when the warmup percentage was hit.
system.l2.tags.occ_blocks::writebacks       39.155392                       # Average occupied blocks per requestor
system.l2.tags.occ_blocks::cpu.inst         17.458775                       # Average occupied blocks per requestor
system.l2.tags.occ_blocks::cpu.data      32596.173825                       # Average occupied blocks per requestor
system.l2.tags.occ_percent::writebacks       0.001195                       # Average percentage of cache occupancy
system.l2.tags.occ_percent::cpu.inst         0.000533                       # Average percentage of cache occupancy
system.l2.tags.occ_percent::cpu.data         0.994756                       # Average percentage of cache occupancy
system.l2.tags.occ_percent::total            0.996484                       # Average percentage of cache occupancy
system.l2.tags.occ_task_id_blocks::1024         32768                       # Occupied blocks per task id
system.l2.tags.age_task_id_blocks_1024::1          563                       # Occupied blocks per task id
system.l2.tags.age_task_id_blocks_1024::2         4524                       # Occupied blocks per task id
system.l2.tags.age_task_id_blocks_1024::3        18280                       # Occupied blocks per task id
system.l2.tags.age_task_id_blocks_1024::4         9401                       # Occupied blocks per task id
system.l2.tags.occ_task_id_percent::1024            1                       # Percentage of cache occupancy per task id
system.l2.tags.tag_accesses                 165569128                       # Number of tag accesses
system.l2.tags.data_accesses                165569128                       # Number of data accesses
system.l2.pwrStateResidencyTicks::UNDEFINED 2027588497500                       # Cumulative time (in ticks) in various power states
system.l2.WritebackDirty_hits::writebacks      4471809                       # number of WritebackDirty hits
system.l2.WritebackDirty_hits::total          4471809                       # number of WritebackDirty hits
system.l2.WritebackClean_hits::writebacks      3126572                       # number of WritebackClean hits
system.l2.WritebackClean_hits::total          3126572                       # number of WritebackClean hits
system.l2.ReadExReq_hits::cpu.data             401755                       # number of ReadExReq hits
system.l2.ReadExReq_hits::total                401755                       # number of ReadExReq hits
system.l2.ReadCleanReq_hits::cpu.inst         3125648                       # number of ReadCleanReq hits
system.l2.ReadCleanReq_hits::total            3125648                       # number of ReadCleanReq hits
system.l2.ReadSharedReq_hits::cpu.data        5928731                       # number of ReadSharedReq hits
system.l2.ReadSharedReq_hits::total           5928731                       # number of ReadSharedReq hits
system.l2.demand_hits::cpu.inst               3125648                       # number of demand (read+write) hits
system.l2.demand_hits::cpu.data               6330486                       # number of demand (read+write) hits
system.l2.demand_hits::total                  9456134                       # number of demand (read+write) hits
system.l2.overall_hits::cpu.inst              3125648                       # number of overall hits
system.l2.overall_hits::cpu.data              6330486                       # number of overall hits
system.l2.overall_hits::total                 9456134                       # number of overall hits
system.l2.ReadExReq_misses::cpu.data           441225                       # number of ReadExReq misses
system.l2.ReadExReq_misses::total              441225                       # number of ReadExReq misses
system.l2.ReadCleanReq_misses::cpu.inst          1181                       # number of ReadCleanReq misses
system.l2.ReadCleanReq_misses::total             1181                       # number of ReadCleanReq misses
system.l2.ReadSharedReq_misses::cpu.data      9549222                       # number of ReadSharedReq misses
system.l2.ReadSharedReq_misses::total         9549222                       # number of ReadSharedReq misses
system.l2.demand_misses::cpu.inst                1181                       # number of demand (read+write) misses
system.l2.demand_misses::cpu.data             9990447                       # number of demand (read+write) misses
system.l2.demand_misses::total                9991628                       # number of demand (read+write) misses
system.l2.overall_misses::cpu.inst               1181                       # number of overall misses
system.l2.overall_misses::cpu.data            9990447                       # number of overall misses
system.l2.overall_misses::total               9991628                       # number of overall misses
system.l2.ReadExReq_miss_latency::cpu.data  39569840000                       # number of ReadExReq miss cycles
system.l2.ReadExReq_miss_latency::total   39569840000                       # number of ReadExReq miss cycles
system.l2.ReadCleanReq_miss_latency::cpu.inst    102668000                       # number of ReadCleanReq miss cycles
system.l2.ReadCleanReq_miss_latency::total    102668000                       # number of ReadCleanReq miss cycles
system.l2.ReadSharedReq_miss_latency::cpu.data 888353552500                       # number of ReadSharedReq miss cycles
system.l2.ReadSharedReq_miss_latency::total 888353552500                       # number of ReadSharedReq miss cycles
system.l2.demand_miss_latency::cpu.inst     102668000                       # number of demand (read+write) miss cycles
system.l2.demand_miss_latency::cpu.data  927923392500                       # number of demand (read+write) miss cycles
system.l2.demand_miss_latency::total     928026060500                       # number of demand (read+write) miss cycles
system.l2.overall_miss_latency::cpu.inst    102668000                       # number of overall miss cycles
system.l2.overall_miss_latency::cpu.data 927923392500                       # number of overall miss cycles
system.l2.overall_miss_latency::total    928026060500                       # number of overall miss cycles
system.l2.WritebackDirty_accesses::writebacks      4471809                       # number of WritebackDirty accesses(hits+misses)
system.l2.WritebackDirty_accesses::total      4471809                       # number of WritebackDirty accesses(hits+misses)
system.l2.WritebackClean_accesses::writebacks      3126572                       # number of WritebackClean accesses(hits+misses)
system.l2.WritebackClean_accesses::total      3126572                       # number of WritebackClean accesses(hits+misses)
system.l2.ReadExReq_accesses::cpu.data         842980                       # number of ReadExReq accesses(hits+misses)
system.l2.ReadExReq_accesses::total            842980                       # number of ReadExReq accesses(hits+misses)
system.l2.ReadCleanReq_accesses::cpu.inst      3126829                       # number of ReadCleanReq accesses(hits+misses)
system.l2.ReadCleanReq_accesses::total        3126829                       # number of ReadCleanReq accesses(hits+misses)
system.l2.ReadSharedReq_accesses::cpu.data     15477953                       # number of ReadSharedReq accesses(hits+misses)
system.l2.ReadSharedReq_accesses::total      15477953                       # number of ReadSharedReq accesses(hits+misses)
system.l2.demand_accesses::cpu.inst           3126829                       # number of demand (read+write) accesses
system.l2.demand_accesses::cpu.data          16320933                       # number of demand (read+write) accesses
system.l2.demand_accesses::total             19447762                       # number of demand (read+write) accesses
system.l2.overall_accesses::cpu.inst          3126829                       # number of overall (read+write) accesses
system.l2.overall_accesses::cpu.data         16320933                       # number of overall (read+write) accesses
system.l2.overall_accesses::total            19447762                       # number of overall (read+write) accesses
system.l2.ReadExReq_miss_rate::cpu.data      0.523411                       # miss rate for ReadExReq accesses
system.l2.ReadExReq_miss_rate::total         0.523411                       # miss rate for ReadExReq accesses
system.l2.ReadCleanReq_miss_rate::cpu.inst     0.000378                       # miss rate for ReadCleanReq accesses
system.l2.ReadCleanReq_miss_rate::total      0.000378                       # miss rate for ReadCleanReq accesses
system.l2.ReadSharedReq_miss_rate::cpu.data     0.616956                       # miss rate for ReadSharedReq accesses
system.l2.ReadSharedReq_miss_rate::total     0.616956                       # miss rate for ReadSharedReq accesses
system.l2.demand_miss_rate::cpu.inst         0.000378                       # miss rate for demand accesses
system.l2.demand_miss_rate::cpu.data         0.612125                       # miss rate for demand accesses
system.l2.demand_miss_rate::total            0.513767                       # miss rate for demand accesses
system.l2.overall_miss_rate::cpu.inst        0.000378                       # miss rate for overall accesses
system.l2.overall_miss_rate::cpu.data        0.612125                       # miss rate for overall accesses
system.l2.overall_miss_rate::total           0.513767                       # miss rate for overall accesses
system.l2.ReadExReq_avg_miss_latency::cpu.data 89681.772338                       # average ReadExReq miss latency
system.l2.ReadExReq_avg_miss_latency::total 89681.772338                       # average ReadExReq miss latency
system.l2.ReadCleanReq_avg_miss_latency::cpu.inst 86933.107536                       # average ReadCleanReq miss latency
system.l2.ReadCleanReq_avg_miss_latency::total 86933.107536                       # average ReadCleanReq miss latency
system.l2.ReadSharedReq_avg_miss_latency::cpu.data 93028.893087                       # average ReadSharedReq miss latency
system.l2.ReadSharedReq_avg_miss_latency::total 93028.893087                       # average ReadSharedReq miss latency
system.l2.demand_avg_miss_latency::cpu.inst 86933.107536                       # average overall miss latency
system.l2.demand_avg_miss_latency::cpu.data 92881.068535                       # average overall miss latency
system.l2.demand_avg_miss_latency::total 92880.365492                       # average overall miss latency
system.l2.overall_avg_miss_latency::cpu.inst 86933.107536                       # average overall miss latency
system.l2.overall_avg_miss_latency::cpu.data 92881.068535                       # average overall miss latency
system.l2.overall_avg_miss_latency::total 92880.365492                       # average overall miss latency
system.l2.blocked_cycles::no_mshrs                  0                       # number of cycles access was blocked
system.l2.blocked_cycles::no_targets                0                       # number of cycles access was blocked
system.l2.blocked::no_mshrs                         0                       # number of cycles access was blocked
system.l2.blocked::no_targets                       0                       # number of cycles access was blocked
system.l2.avg_blocked_cycles::no_mshrs            nan                       # average number of cycles each access was blocked
system.l2.avg_blocked_cycles::no_targets          nan                       # average number of cycles each access was blocked
system.l2.writebacks::writebacks              1232543                       # number of writebacks
system.l2.writebacks::total                   1232543                       # number of writebacks
system.l2.CleanEvict_mshr_misses::writebacks         1006                       # number of CleanEvict MSHR misses
system.l2.CleanEvict_mshr_misses::total          1006                       # number of CleanEvict MSHR misses
system.l2.ReadExReq_mshr_misses::cpu.data       441225                       # number of ReadExReq MSHR misses
system.l2.ReadExReq_mshr_misses::total         441225                       # number of ReadExReq MSHR misses
system.l2.ReadCleanReq_mshr_misses::cpu.inst         1181                       # number of ReadCleanReq MSHR misses
system.l2.ReadCleanReq_mshr_misses::total         1181                       # number of ReadCleanReq MSHR misses
system.l2.ReadSharedReq_mshr_misses::cpu.data      9549222                       # number of ReadSharedReq MSHR misses
system.l2.ReadSharedReq_mshr_misses::total      9549222                       # number of ReadSharedReq MSHR misses
system.l2.demand_mshr_misses::cpu.inst           1181                       # number of demand (read+write) MSHR misses
system.l2.demand_mshr_misses::cpu.data        9990447                       # number of demand (read+write) MSHR misses
system.l2.demand_mshr_misses::total           9991628                       # number of demand (read+write) MSHR misses
system.l2.overall_mshr_misses::cpu.inst          1181                       # number of overall MSHR misses
system.l2.overall_mshr_misses::cpu.data       9990447                       # number of overall MSHR misses
system.l2.overall_mshr_misses::total          9991628                       # number of overall MSHR misses
system.l2.ReadExReq_mshr_miss_latency::cpu.data  35157590000                       # number of ReadExReq MSHR miss cycles
system.l2.ReadExReq_mshr_miss_latency::total  35157590000                       # number of ReadExReq MSHR miss cycles
system.l2.ReadCleanReq_mshr_miss_latency::cpu.inst     90858000                       # number of ReadCleanReq MSHR miss cycles
system.l2.ReadCleanReq_mshr_miss_latency::total     90858000                       # number of ReadCleanReq MSHR miss cycles
system.l2.ReadSharedReq_mshr_miss_latency::cpu.data 792861332500                       # number of ReadSharedReq MSHR miss cycles
system.l2.ReadSharedReq_mshr_miss_latency::total 792861332500                       # number of ReadSharedReq MSHR miss cycles
system.l2.demand_mshr_miss_latency::cpu.inst     90858000                       # number of demand (read+write) MSHR miss cycles
system.l2.demand_mshr_miss_latency::cpu.data 828018922500                       # number of demand (read+write) MSHR miss cycles
system.l2.demand_mshr_miss_latency::total 828109780500                       # number of demand (read+write) MSHR miss cycles
system.l2.overall_mshr_miss_latency::cpu.inst     90858000                       # number of overall MSHR miss cycles
system.l2.overall_mshr_miss_latency::cpu.data 828018922500                       # number of overall MSHR miss cycles
system.l2.overall_mshr_miss_latency::total 828109780500                       # number of overall MSHR miss cycles
system.l2.CleanEvict_mshr_miss_rate::writebacks          inf                       # mshr miss rate for CleanEvict accesses
system.l2.CleanEvict_mshr_miss_rate::total          inf                       # mshr miss rate for CleanEvict accesses
system.l2.ReadExReq_mshr_miss_rate::cpu.data     0.523411                       # mshr miss rate for ReadExReq accesses
system.l2.ReadExReq_mshr_miss_rate::total     0.523411                       # mshr miss rate for ReadExReq accesses
system.l2.ReadCleanReq_mshr_miss_rate::cpu.inst     0.000378                       # mshr miss rate for ReadCleanReq accesses
system.l2.ReadCleanReq_mshr_miss_rate::total     0.000378                       # mshr miss rate for ReadCleanReq accesses
system.l2.ReadSharedReq_mshr_miss_rate::cpu.data     0.616956                       # mshr miss rate for ReadSharedReq accesses
system.l2.ReadSharedReq_mshr_miss_rate::total     0.616956                       # mshr miss rate for ReadSharedReq accesses
system.l2.demand_mshr_miss_rate::cpu.inst     0.000378                       # mshr miss rate for demand accesses
system.l2.demand_mshr_miss_rate::cpu.data     0.612125                       # mshr miss rate for demand accesses
system.l2.demand_mshr_miss_rate::total       0.513767                       # mshr miss rate for demand accesses
system.l2.overall_mshr_miss_rate::cpu.inst     0.000378                       # mshr miss rate for overall accesses
system.l2.overall_mshr_miss_rate::cpu.data     0.612125                       # mshr miss rate for overall accesses
system.l2.overall_mshr_miss_rate::total      0.513767                       # mshr miss rate for overall accesses
system.l2.ReadExReq_avg_mshr_miss_latency::cpu.data 79681.772338                       # average ReadExReq mshr miss latency
system.l2.ReadExReq_avg_mshr_miss_latency::total 79681.772338                       # average ReadExReq mshr miss latency
system.l2.ReadCleanReq_avg_mshr_miss_latency::cpu.inst 76933.107536                       # average ReadCleanReq mshr miss latency
system.l2.ReadCleanReq_avg_mshr_miss_latency::total 76933.107536                       # average ReadCleanReq mshr miss latency
system.l2.ReadSharedReq_avg_mshr_miss_latency::cpu.data 83028.893087                       # average ReadSharedReq mshr miss latency
system.l2.ReadSharedReq_avg_mshr_miss_latency::total 83028.893087                       # average ReadSharedReq mshr miss latency
system.l2.demand_avg_mshr_miss_latency::cpu.inst 76933.107536                       # average overall mshr miss latency
system.l2.demand_avg_mshr_miss_latency::cpu.data 82881.068535                       # average overall mshr miss latency
system.l2.demand_avg_mshr_miss_latency::total 82880.365492                       # average overall mshr miss latency
system.l2.overall_avg_mshr_miss_latency::cpu.inst 76933.107536                       # average overall mshr miss latency
system.l2.overall_avg_mshr_miss_latency::cpu.data 82881.068535                       # average overall mshr miss latency
system.l2.overall_avg_mshr_miss_latency::total 82880.365492                       # average overall mshr miss latency
system.membus.snoop_filter.tot_requests      19950225                       # Total number of requests made to the snoop filter.
system.membus.snoop_filter.hit_single_requests      9958597                       # Number of requests hitting in the snoop filter with a single holder of the requested data.
system.membus.snoop_filter.hit_multi_requests            0                       # Number of requests hitting in the snoop filter with multiple (>1) holders of the requested data.
system.membus.snoop_filter.tot_snoops               0                       # Total number of snoops made to the snoop filter.
system.membus.snoop_filter.hit_single_snoops            0                       # Number of snoops hitting in the snoop filter with a single holder of the requested data.
system.membus.snoop_filter.hit_multi_snoops            0                       # Number of snoops hitting in the snoop filter with multiple (>1) holders of the requested data.
system.membus.pwrStateResidencyTicks::UNDEFINED 2027588497500                       # Cumulative time (in ticks) in various power states
system.membus.trans_dist::ReadResp            9550403                       # Transaction distribution
system.membus.trans_dist::WritebackDirty      1232543                       # Transaction distribution
system.membus.trans_dist::CleanEvict          8726054                       # Transaction distribution
system.membus.trans_dist::ReadExReq            441225                       # Transaction distribution
system.membus.trans_dist::ReadExResp           441225                       # Transaction distribution
system.membus.trans_dist::ReadSharedReq       9550403                       # Transaction distribution
system.membus.pkt_count_system.l2.mem_side::system.mem_ctrls.port     29941853                       # Packet count per connected master and slave (bytes)
system.membus.pkt_count_system.l2.mem_side::total     29941853                       # Packet count per connected master and slave (bytes)
system.membus.pkt_count::total               29941853                       # Packet count per connected master and slave (bytes)
system.membus.pkt_size_system.l2.mem_side::system.mem_ctrls.port    359173472                       # Cumulative packet size per connected master and slave (bytes)
system.membus.pkt_size_system.l2.mem_side::total    359173472                       # Cumulative packet size per connected master and slave (bytes)
system.membus.pkt_size::total               359173472                       # Cumulative packet size per connected master and slave (bytes)
system.membus.snoops                                0                       # Total snoops (count)
system.membus.snoopTraffic                          0                       # Total snoop traffic (bytes)
system.membus.snoop_fanout::samples           9991628                       # Request fanout histogram
system.membus.snoop_fanout::mean                    0                       # Request fanout histogram
system.membus.snoop_fanout::stdev                   0                       # Request fanout histogram
system.membus.snoop_fanout::underflows              0      0.00%      0.00% # Request fanout histogram
system.membus.snoop_fanout::0                 9991628    100.00%    100.00% # Request fanout histogram
system.membus.snoop_fanout::1                       0      0.00%    100.00% # Request fanout histogram
system.membus.snoop_fanout::overflows               0      0.00%    100.00% # Request fanout histogram
system.membus.snoop_fanout::min_value               0                       # Request fanout histogram
system.membus.snoop_fanout::max_value               0                       # Request fanout histogram
system.membus.snoop_fanout::total             9991628                       # Request fanout histogram
system.membus.reqLayer2.occupancy         22427661000                       # Layer occupancy (ticks)
system.membus.reqLayer2.utilization               1.1                       # Layer utilization (%)
system.membus.respLayer1.occupancy        34435383250                       # Layer occupancy (ticks)
system.membus.respLayer1.utilization              1.7                       # Layer utilization (%)
system.tol2bus.snoop_filter.tot_requests     38893220                       # Total number of requests made to the snoop filter.
system.tol2bus.snoop_filter.hit_single_requests     19445458                       # Number of requests hitting in the snoop filter with a single holder of the requested data.
system.tol2bus.snoop_filter.hit_multi_requests            1                       # Number of requests hitting in the snoop filter with multiple (>1) holders of the requested data.
system.tol2bus.snoop_filter.tot_snoops           5893                       # Total number of snoops made to the snoop filter.
system.tol2bus.snoop_filter.hit_single_snoops         5893                       # Number of snoops hitting in the snoop filter with a single holder of the requested data.
system.tol2bus.snoop_filter.hit_multi_snoops            0                       # Number of snoops hitting in the snoop filter with multiple (>1) holders of the requested data.
system.tol2bus.pwrStateResidencyTicks::UNDEFINED 2027588497500                       # Cumulative time (in ticks) in various power states
system.tol2bus.trans_dist::ReadResp          18604782                       # Transaction distribution
system.tol2bus.trans_dist::WritebackDirty      5704352                       # Transaction distribution
system.tol2bus.trans_dist::WritebackClean      3126573                       # Transaction distribution
system.tol2bus.trans_dist::CleanEvict        20578017                       # Transaction distribution
system.tol2bus.trans_dist::ReadExReq           842980                       # Transaction distribution
system.tol2bus.trans_dist::ReadExResp          842980                       # Transaction distribution
system.tol2bus.trans_dist::ReadCleanReq       3126829                       # Transaction distribution
system.tol2bus.trans_dist::ReadSharedReq     15477953                       # Transaction distribution
system.tol2bus.pkt_count_system.cpu.icache.mem_side::system.l2.cpu_side      9380231                       # Packet count per connected master and slave (bytes)
system.tol2bus.pkt_count_system.cpu.dcache.mem_side::system.l2.cpu_side     48960751                       # Packet count per connected master and slave (bytes)
system.tol2bus.pkt_count::total              58340982                       # Packet count per connected master and slave (bytes)
system.tol2bus.pkt_size_system.cpu.icache.mem_side::system.l2.cpu_side    200108864                       # Cumulative packet size per connected master and slave (bytes)
system.tol2bus.pkt_size_system.cpu.dcache.mem_side::system.l2.cpu_side    665367744                       # Cumulative packet size per connected master and slave (bytes)
system.tol2bus.pkt_size::total              865476608                       # Cumulative packet size per connected master and slave (bytes)
system.tol2bus.snoops                         9963484                       # Total snoops (count)
system.tol2bus.snoopTraffic                  39441376                       # Total snoop traffic (bytes)
system.tol2bus.snoop_fanout::samples         29411246                       # Request fanout histogram
system.tol2bus.snoop_fanout::mean            0.000200                       # Request fanout histogram
system.tol2bus.snoop_fanout::stdev           0.014155                       # Request fanout histogram
system.tol2bus.snoop_fanout::underflows             0      0.00%      0.00% # Request fanout histogram
system.tol2bus.snoop_fanout::0               29405352     99.98%     99.98% # Request fanout histogram
system.tol2bus.snoop_fanout::1                   5894      0.02%    100.00% # Request fanout histogram
system.tol2bus.snoop_fanout::2                      0      0.00%    100.00% # Request fanout histogram
system.tol2bus.snoop_fanout::3                      0      0.00%    100.00% # Request fanout histogram
system.tol2bus.snoop_fanout::4                      0      0.00%    100.00% # Request fanout histogram
system.tol2bus.snoop_fanout::overflows              0      0.00%    100.00% # Request fanout histogram
system.tol2bus.snoop_fanout::min_value              0                       # Request fanout histogram
system.tol2bus.snoop_fanout::max_value              1                       # Request fanout histogram
system.tol2bus.snoop_fanout::total           29411246                       # Request fanout histogram
system.tol2bus.reqLayer0.occupancy        23245801000                       # Layer occupancy (ticks)
system.tol2bus.reqLayer0.utilization              1.1                       # Layer utilization (%)
system.tol2bus.respLayer0.occupancy        3126829000                       # Layer occupancy (ticks)
system.tol2bus.respLayer0.utilization             0.2                       # Layer utilization (%)
system.tol2bus.respLayer1.occupancy       16320933000                       # Layer occupancy (ticks)
system.tol2bus.respLayer1.utilization             0.8                       # Layer utilization (%)

---------- End Simulation Statistics   ----------
