
---------- Begin Simulation Statistics ----------
sim_seconds                                  1.711588                       # Number of seconds simulated
sim_ticks                                1711588216500                       # Number of ticks simulated
final_tick                               1711588216500                       # Number of ticks from beginning of simulation (restored from checkpoints and never reset)
sim_freq                                 1000000000000                       # Frequency of simulated ticks
host_inst_rate                                 335216                       # Simulator instruction rate (inst/s)
host_op_rate                                   587509                       # Simulator op (including micro ops) rate (op/s)
host_tick_rate                             1147503400                       # Simulator tick rate (ticks/s)
host_mem_usage                                 598120                       # Number of bytes of host memory used
host_seconds                                  1491.58                       # Real time elapsed on the host
sim_insts                                   500000000                       # Number of instructions simulated
sim_ops                                     876313781                       # Number of ops (including micro ops) simulated
system.voltage_domain.voltage                       1                       # Voltage in Volts
system.clk_domain.clock                          1000                       # Clock period in ticks
system.mem_ctrls.pwrStateResidencyTicks::UNDEFINED 1711588216500                       # Cumulative time (in ticks) in various power states
system.mem_ctrls.bytes_read::cpu.inst           44928                       # Number of bytes read from this memory
system.mem_ctrls.bytes_read::cpu.data       406615936                       # Number of bytes read from this memory
system.mem_ctrls.bytes_read::total          406660864                       # Number of bytes read from this memory
system.mem_ctrls.bytes_inst_read::cpu.inst        44928                       # Number of instructions bytes read from this memory
system.mem_ctrls.bytes_inst_read::total         44928                       # Number of instructions bytes read from this memory
system.mem_ctrls.bytes_written::writebacks     70868672                       # Number of bytes written to this memory
system.mem_ctrls.bytes_written::total        70868672                       # Number of bytes written to this memory
system.mem_ctrls.num_reads::cpu.inst              702                       # Number of read requests responded to by this memory
system.mem_ctrls.num_reads::cpu.data          6353374                       # Number of read requests responded to by this memory
system.mem_ctrls.num_reads::total             6354076                       # Number of read requests responded to by this memory
system.mem_ctrls.num_writes::writebacks       1107323                       # Number of write requests responded to by this memory
system.mem_ctrls.num_writes::total            1107323                       # Number of write requests responded to by this memory
system.mem_ctrls.bw_read::cpu.inst              26249                       # Total read bandwidth from this memory (bytes/s)
system.mem_ctrls.bw_read::cpu.data          237566450                       # Total read bandwidth from this memory (bytes/s)
system.mem_ctrls.bw_read::total             237592699                       # Total read bandwidth from this memory (bytes/s)
system.mem_ctrls.bw_inst_read::cpu.inst         26249                       # Instruction read bandwidth from this memory (bytes/s)
system.mem_ctrls.bw_inst_read::total            26249                       # Instruction read bandwidth from this memory (bytes/s)
system.mem_ctrls.bw_write::writebacks        41405211                       # Write bandwidth from this memory (bytes/s)
system.mem_ctrls.bw_write::total             41405211                       # Write bandwidth from this memory (bytes/s)
system.mem_ctrls.bw_total::writebacks        41405211                       # Total bandwidth to/from this memory (bytes/s)
system.mem_ctrls.bw_total::cpu.inst             26249                       # Total bandwidth to/from this memory (bytes/s)
system.mem_ctrls.bw_total::cpu.data         237566450                       # Total bandwidth to/from this memory (bytes/s)
system.mem_ctrls.bw_total::total            278997910                       # Total bandwidth to/from this memory (bytes/s)
system.mem_ctrls.readReqs                     6354076                       # Number of read requests accepted
system.mem_ctrls.writeReqs                    1107323                       # Number of write requests accepted
system.mem_ctrls.readBursts                   6354076                       # Number of DRAM read bursts, including those serviced by the write queue
system.mem_ctrls.writeBursts                  1107323                       # Number of DRAM write bursts, including those merged in the write queue
system.mem_ctrls.bytesReadDRAM              406143424                       # Total number of bytes read from DRAM
system.mem_ctrls.bytesReadWrQ                  517440                       # Total number of bytes read from write queue
system.mem_ctrls.bytesWritten                70866368                       # Total number of bytes written to DRAM
system.mem_ctrls.bytesReadSys               406660864                       # Total read bytes from the system interface side
system.mem_ctrls.bytesWrittenSys             70868672                       # Total written bytes from the system interface side
system.mem_ctrls.servicedByWrQ                   8085                       # Number of DRAM read bursts serviced by the write queue
system.mem_ctrls.mergedWrBursts                    13                       # Number of DRAM write bursts merged with an existing one
system.mem_ctrls.neitherReadNorWriteReqs            0                       # Number of requests that are neither read nor write
system.mem_ctrls.perBankRdBursts::0            410268                       # Per bank write bursts
system.mem_ctrls.perBankRdBursts::1            392624                       # Per bank write bursts
system.mem_ctrls.perBankRdBursts::2            392082                       # Per bank write bursts
system.mem_ctrls.perBankRdBursts::3            405189                       # Per bank write bursts
system.mem_ctrls.perBankRdBursts::4            384864                       # Per bank write bursts
system.mem_ctrls.perBankRdBursts::5            388006                       # Per bank write bursts
system.mem_ctrls.perBankRdBursts::6            392359                       # Per bank write bursts
system.mem_ctrls.perBankRdBursts::7            383647                       # Per bank write bursts
system.mem_ctrls.perBankRdBursts::8            393622                       # Per bank write bursts
system.mem_ctrls.perBankRdBursts::9            390287                       # Per bank write bursts
system.mem_ctrls.perBankRdBursts::10           391300                       # Per bank write bursts
system.mem_ctrls.perBankRdBursts::11           394712                       # Per bank write bursts
system.mem_ctrls.perBankRdBursts::12           405748                       # Per bank write bursts
system.mem_ctrls.perBankRdBursts::13           408870                       # Per bank write bursts
system.mem_ctrls.perBankRdBursts::14           405268                       # Per bank write bursts
system.mem_ctrls.perBankRdBursts::15           407145                       # Per bank write bursts
system.mem_ctrls.perBankWrBursts::0             71622                       # Per bank write bursts
system.mem_ctrls.perBankWrBursts::1             70829                       # Per bank write bursts
system.mem_ctrls.perBankWrBursts::2             70748                       # Per bank write bursts
system.mem_ctrls.perBankWrBursts::3             73050                       # Per bank write bursts
system.mem_ctrls.perBankWrBursts::4             67697                       # Per bank write bursts
system.mem_ctrls.perBankWrBursts::5             65879                       # Per bank write bursts
system.mem_ctrls.perBankWrBursts::6             67924                       # Per bank write bursts
system.mem_ctrls.perBankWrBursts::7             65680                       # Per bank write bursts
system.mem_ctrls.perBankWrBursts::8             66995                       # Per bank write bursts
system.mem_ctrls.perBankWrBursts::9             65704                       # Per bank write bursts
system.mem_ctrls.perBankWrBursts::10            66005                       # Per bank write bursts
system.mem_ctrls.perBankWrBursts::11            69144                       # Per bank write bursts
system.mem_ctrls.perBankWrBursts::12            71684                       # Per bank write bursts
system.mem_ctrls.perBankWrBursts::13            71647                       # Per bank write bursts
system.mem_ctrls.perBankWrBursts::14            71253                       # Per bank write bursts
system.mem_ctrls.perBankWrBursts::15            71426                       # Per bank write bursts
system.mem_ctrls.numRdRetry                         0                       # Number of times read queue was full causing retry
system.mem_ctrls.numWrRetry                         0                       # Number of times write queue was full causing retry
system.mem_ctrls.totGap                  1711570939500                       # Total gap between requests
system.mem_ctrls.readPktSize::0                     0                       # Read request sizes (log2)
system.mem_ctrls.readPktSize::1                     0                       # Read request sizes (log2)
system.mem_ctrls.readPktSize::2                     0                       # Read request sizes (log2)
system.mem_ctrls.readPktSize::3                     0                       # Read request sizes (log2)
system.mem_ctrls.readPktSize::4                     0                       # Read request sizes (log2)
system.mem_ctrls.readPktSize::5                     0                       # Read request sizes (log2)
system.mem_ctrls.readPktSize::6               6354076                       # Read request sizes (log2)
system.mem_ctrls.writePktSize::0                    0                       # Write request sizes (log2)
system.mem_ctrls.writePktSize::1                    0                       # Write request sizes (log2)
system.mem_ctrls.writePktSize::2                    0                       # Write request sizes (log2)
system.mem_ctrls.writePktSize::3                    0                       # Write request sizes (log2)
system.mem_ctrls.writePktSize::4                    0                       # Write request sizes (log2)
system.mem_ctrls.writePktSize::5                    0                       # Write request sizes (log2)
system.mem_ctrls.writePktSize::6              1107323                       # Write request sizes (log2)
system.mem_ctrls.rdQLenPdf::0                 6345991                       # What read queue length does an incoming req see
system.mem_ctrls.rdQLenPdf::1                       0                       # What read queue length does an incoming req see
system.mem_ctrls.rdQLenPdf::2                       0                       # What read queue length does an incoming req see
system.mem_ctrls.rdQLenPdf::3                       0                       # What read queue length does an incoming req see
system.mem_ctrls.rdQLenPdf::4                       0                       # What read queue length does an incoming req see
system.mem_ctrls.rdQLenPdf::5                       0                       # What read queue length does an incoming req see
system.mem_ctrls.rdQLenPdf::6                       0                       # What read queue length does an incoming req see
system.mem_ctrls.rdQLenPdf::7                       0                       # What read queue length does an incoming req see
system.mem_ctrls.rdQLenPdf::8                       0                       # What read queue length does an incoming req see
system.mem_ctrls.rdQLenPdf::9                       0                       # What read queue length does an incoming req see
system.mem_ctrls.rdQLenPdf::10                      0                       # What read queue length does an incoming req see
system.mem_ctrls.rdQLenPdf::11                      0                       # What read queue length does an incoming req see
system.mem_ctrls.rdQLenPdf::12                      0                       # What read queue length does an incoming req see
system.mem_ctrls.rdQLenPdf::13                      0                       # What read queue length does an incoming req see
system.mem_ctrls.rdQLenPdf::14                      0                       # What read queue length does an incoming req see
system.mem_ctrls.rdQLenPdf::15                      0                       # What read queue length does an incoming req see
system.mem_ctrls.rdQLenPdf::16                      0                       # What read queue length does an incoming req see
system.mem_ctrls.rdQLenPdf::17                      0                       # What read queue length does an incoming req see
system.mem_ctrls.rdQLenPdf::18                      0                       # What read queue length does an incoming req see
system.mem_ctrls.rdQLenPdf::19                      0                       # What read queue length does an incoming req see
system.mem_ctrls.rdQLenPdf::20                      0                       # What read queue length does an incoming req see
system.mem_ctrls.rdQLenPdf::21                      0                       # What read queue length does an incoming req see
system.mem_ctrls.rdQLenPdf::22                      0                       # What read queue length does an incoming req see
system.mem_ctrls.rdQLenPdf::23                      0                       # What read queue length does an incoming req see
system.mem_ctrls.rdQLenPdf::24                      0                       # What read queue length does an incoming req see
system.mem_ctrls.rdQLenPdf::25                      0                       # What read queue length does an incoming req see
system.mem_ctrls.rdQLenPdf::26                      0                       # What read queue length does an incoming req see
system.mem_ctrls.rdQLenPdf::27                      0                       # What read queue length does an incoming req see
system.mem_ctrls.rdQLenPdf::28                      0                       # What read queue length does an incoming req see
system.mem_ctrls.rdQLenPdf::29                      0                       # What read queue length does an incoming req see
system.mem_ctrls.rdQLenPdf::30                      0                       # What read queue length does an incoming req see
system.mem_ctrls.rdQLenPdf::31                      0                       # What read queue length does an incoming req see
system.mem_ctrls.wrQLenPdf::0                       1                       # What write queue length does an incoming req see
system.mem_ctrls.wrQLenPdf::1                       1                       # What write queue length does an incoming req see
system.mem_ctrls.wrQLenPdf::2                       1                       # What write queue length does an incoming req see
system.mem_ctrls.wrQLenPdf::3                       1                       # What write queue length does an incoming req see
system.mem_ctrls.wrQLenPdf::4                       1                       # What write queue length does an incoming req see
system.mem_ctrls.wrQLenPdf::5                       1                       # What write queue length does an incoming req see
system.mem_ctrls.wrQLenPdf::6                       1                       # What write queue length does an incoming req see
system.mem_ctrls.wrQLenPdf::7                       1                       # What write queue length does an incoming req see
system.mem_ctrls.wrQLenPdf::8                       1                       # What write queue length does an incoming req see
system.mem_ctrls.wrQLenPdf::9                       1                       # What write queue length does an incoming req see
system.mem_ctrls.wrQLenPdf::10                      1                       # What write queue length does an incoming req see
system.mem_ctrls.wrQLenPdf::11                      1                       # What write queue length does an incoming req see
system.mem_ctrls.wrQLenPdf::12                      1                       # What write queue length does an incoming req see
system.mem_ctrls.wrQLenPdf::13                      1                       # What write queue length does an incoming req see
system.mem_ctrls.wrQLenPdf::14                      1                       # What write queue length does an incoming req see
system.mem_ctrls.wrQLenPdf::15                  28706                       # What write queue length does an incoming req see
system.mem_ctrls.wrQLenPdf::16                  30207                       # What write queue length does an incoming req see
system.mem_ctrls.wrQLenPdf::17                  65507                       # What write queue length does an incoming req see
system.mem_ctrls.wrQLenPdf::18                  65525                       # What write queue length does an incoming req see
system.mem_ctrls.wrQLenPdf::19                  65523                       # What write queue length does an incoming req see
system.mem_ctrls.wrQLenPdf::20                  65525                       # What write queue length does an incoming req see
system.mem_ctrls.wrQLenPdf::21                  65527                       # What write queue length does an incoming req see
system.mem_ctrls.wrQLenPdf::22                  65523                       # What write queue length does an incoming req see
system.mem_ctrls.wrQLenPdf::23                  65523                       # What write queue length does an incoming req see
system.mem_ctrls.wrQLenPdf::24                  65526                       # What write queue length does an incoming req see
system.mem_ctrls.wrQLenPdf::25                  65523                       # What write queue length does an incoming req see
system.mem_ctrls.wrQLenPdf::26                  65524                       # What write queue length does an incoming req see
system.mem_ctrls.wrQLenPdf::27                  65524                       # What write queue length does an incoming req see
system.mem_ctrls.wrQLenPdf::28                  65526                       # What write queue length does an incoming req see
system.mem_ctrls.wrQLenPdf::29                  65534                       # What write queue length does an incoming req see
system.mem_ctrls.wrQLenPdf::30                  65525                       # What write queue length does an incoming req see
system.mem_ctrls.wrQLenPdf::31                  65524                       # What write queue length does an incoming req see
system.mem_ctrls.wrQLenPdf::32                  65522                       # What write queue length does an incoming req see
system.mem_ctrls.wrQLenPdf::33                      1                       # What write queue length does an incoming req see
system.mem_ctrls.wrQLenPdf::34                      0                       # What write queue length does an incoming req see
system.mem_ctrls.wrQLenPdf::35                      0                       # What write queue length does an incoming req see
system.mem_ctrls.wrQLenPdf::36                      0                       # What write queue length does an incoming req see
system.mem_ctrls.wrQLenPdf::37                      0                       # What write queue length does an incoming req see
system.mem_ctrls.wrQLenPdf::38                      0                       # What write queue length does an incoming req see
system.mem_ctrls.wrQLenPdf::39                      0                       # What write queue length does an incoming req see
system.mem_ctrls.wrQLenPdf::40                      0                       # What write queue length does an incoming req see
system.mem_ctrls.wrQLenPdf::41                      0                       # What write queue length does an incoming req see
system.mem_ctrls.wrQLenPdf::42                      0                       # What write queue length does an incoming req see
system.mem_ctrls.wrQLenPdf::43                      0                       # What write queue length does an incoming req see
system.mem_ctrls.wrQLenPdf::44                      0                       # What write queue length does an incoming req see
system.mem_ctrls.wrQLenPdf::45                      0                       # What write queue length does an incoming req see
system.mem_ctrls.wrQLenPdf::46                      0                       # What write queue length does an incoming req see
system.mem_ctrls.wrQLenPdf::47                      0                       # What write queue length does an incoming req see
system.mem_ctrls.wrQLenPdf::48                      0                       # What write queue length does an incoming req see
system.mem_ctrls.wrQLenPdf::49                      0                       # What write queue length does an incoming req see
system.mem_ctrls.wrQLenPdf::50                      0                       # What write queue length does an incoming req see
system.mem_ctrls.wrQLenPdf::51                      0                       # What write queue length does an incoming req see
system.mem_ctrls.wrQLenPdf::52                      0                       # What write queue length does an incoming req see
system.mem_ctrls.wrQLenPdf::53                      0                       # What write queue length does an incoming req see
system.mem_ctrls.wrQLenPdf::54                      0                       # What write queue length does an incoming req see
system.mem_ctrls.wrQLenPdf::55                      0                       # What write queue length does an incoming req see
system.mem_ctrls.wrQLenPdf::56                      0                       # What write queue length does an incoming req see
system.mem_ctrls.wrQLenPdf::57                      0                       # What write queue length does an incoming req see
system.mem_ctrls.wrQLenPdf::58                      0                       # What write queue length does an incoming req see
system.mem_ctrls.wrQLenPdf::59                      0                       # What write queue length does an incoming req see
system.mem_ctrls.wrQLenPdf::60                      0                       # What write queue length does an incoming req see
system.mem_ctrls.wrQLenPdf::61                      0                       # What write queue length does an incoming req see
system.mem_ctrls.wrQLenPdf::62                      0                       # What write queue length does an incoming req see
system.mem_ctrls.wrQLenPdf::63                      0                       # What write queue length does an incoming req see
system.mem_ctrls.bytesPerActivate::samples      5561883                       # Bytes accessed per row activation
system.mem_ctrls.bytesPerActivate::mean     85.764082                       # Bytes accessed per row activation
system.mem_ctrls.bytesPerActivate::gmean    71.774017                       # Bytes accessed per row activation
system.mem_ctrls.bytesPerActivate::stdev   111.449989                       # Bytes accessed per row activation
system.mem_ctrls.bytesPerActivate::0-127      5015446     90.18%     90.18% # Bytes accessed per row activation
system.mem_ctrls.bytesPerActivate::128-255       393415      7.07%     97.25% # Bytes accessed per row activation
system.mem_ctrls.bytesPerActivate::256-383        39131      0.70%     97.95% # Bytes accessed per row activation
system.mem_ctrls.bytesPerActivate::384-511        18501      0.33%     98.28% # Bytes accessed per row activation
system.mem_ctrls.bytesPerActivate::512-639        13627      0.25%     98.53% # Bytes accessed per row activation
system.mem_ctrls.bytesPerActivate::640-767        14354      0.26%     98.79% # Bytes accessed per row activation
system.mem_ctrls.bytesPerActivate::768-895         9744      0.18%     98.96% # Bytes accessed per row activation
system.mem_ctrls.bytesPerActivate::896-1023         8983      0.16%     99.12% # Bytes accessed per row activation
system.mem_ctrls.bytesPerActivate::1024-1151        48682      0.88%    100.00% # Bytes accessed per row activation
system.mem_ctrls.bytesPerActivate::total      5561883                       # Bytes accessed per row activation
system.mem_ctrls.rdPerTurnAround::samples        65522                       # Reads before turning the bus around for writes
system.mem_ctrls.rdPerTurnAround::mean      96.852462                       # Reads before turning the bus around for writes
system.mem_ctrls.rdPerTurnAround::gmean     57.600471                       # Reads before turning the bus around for writes
system.mem_ctrls.rdPerTurnAround::stdev    115.305317                       # Reads before turning the bus around for writes
system.mem_ctrls.rdPerTurnAround::0-255         57924     88.40%     88.40% # Reads before turning the bus around for writes
system.mem_ctrls.rdPerTurnAround::256-511         7122     10.87%     99.27% # Reads before turning the bus around for writes
system.mem_ctrls.rdPerTurnAround::512-767          428      0.65%     99.93% # Reads before turning the bus around for writes
system.mem_ctrls.rdPerTurnAround::768-1023           42      0.06%     99.99% # Reads before turning the bus around for writes
system.mem_ctrls.rdPerTurnAround::1024-1279            4      0.01%    100.00% # Reads before turning the bus around for writes
system.mem_ctrls.rdPerTurnAround::1280-1535            1      0.00%    100.00% # Reads before turning the bus around for writes
system.mem_ctrls.rdPerTurnAround::6656-6911            1      0.00%    100.00% # Reads before turning the bus around for writes
system.mem_ctrls.rdPerTurnAround::total         65522                       # Reads before turning the bus around for writes
system.mem_ctrls.wrPerTurnAround::samples        65522                       # Writes before turning the bus around for reads
system.mem_ctrls.wrPerTurnAround::mean      16.899469                       # Writes before turning the bus around for reads
system.mem_ctrls.wrPerTurnAround::gmean     16.871032                       # Writes before turning the bus around for reads
system.mem_ctrls.wrPerTurnAround::stdev      0.983827                       # Writes before turning the bus around for reads
system.mem_ctrls.wrPerTurnAround::16            35314     53.90%     53.90% # Writes before turning the bus around for reads
system.mem_ctrls.wrPerTurnAround::17             1501      2.29%     56.19% # Writes before turning the bus around for reads
system.mem_ctrls.wrPerTurnAround::18            28687     43.78%     99.97% # Writes before turning the bus around for reads
system.mem_ctrls.wrPerTurnAround::19               20      0.03%    100.00% # Writes before turning the bus around for reads
system.mem_ctrls.wrPerTurnAround::total         65522                       # Writes before turning the bus around for reads
system.mem_ctrls.totQLat                 199249700000                       # Total ticks spent queuing
system.mem_ctrls.totMemAccLat            318237031250                       # Total ticks spent from burst creation until serviced by the DRAM
system.mem_ctrls.totBusLat                31729955000                       # Total ticks spent in databus transfers
system.mem_ctrls.avgQLat                     31397.73                       # Average queueing delay per DRAM burst
system.mem_ctrls.avgBusLat                    5000.00                       # Average bus latency per DRAM burst
system.mem_ctrls.avgMemAccLat                50147.73                       # Average memory access latency per DRAM burst
system.mem_ctrls.avgRdBW                       237.29                       # Average DRAM read bandwidth in MiByte/s
system.mem_ctrls.avgWrBW                        41.40                       # Average achieved write bandwidth in MiByte/s
system.mem_ctrls.avgRdBWSys                    237.59                       # Average system read bandwidth in MiByte/s
system.mem_ctrls.avgWrBWSys                     41.41                       # Average system write bandwidth in MiByte/s
system.mem_ctrls.peakBW                      12800.00                       # Theoretical peak bandwidth in MiByte/s
system.mem_ctrls.busUtil                         2.18                       # Data bus utilization in percentage
system.mem_ctrls.busUtilRead                     1.85                       # Data bus utilization in percentage for reads
system.mem_ctrls.busUtilWrite                    0.32                       # Data bus utilization in percentage for writes
system.mem_ctrls.avgRdQLen                       1.00                       # Average read queue length when enqueuing
system.mem_ctrls.avgWrQLen                      24.81                       # Average write queue length when enqueuing
system.mem_ctrls.readRowHits                  1342834                       # Number of row buffer hits during reads
system.mem_ctrls.writeRowHits                  548561                       # Number of row buffer hits during writes
system.mem_ctrls.readRowHitRate                 21.16                       # Row buffer hit rate for reads
system.mem_ctrls.writeRowHitRate                49.54                       # Row buffer hit rate for writes
system.mem_ctrls.avgGap                     229390.08                       # Average gap between requests
system.mem_ctrls.pageHitRate                    25.38                       # Row buffer hit rate, read and write combined
system.mem_ctrls_0.actEnergy              19728705360                       # Energy for activate commands per rank (pJ)
system.mem_ctrls_0.preEnergy              10486055580                       # Energy for precharge commands per rank (pJ)
system.mem_ctrls_0.readEnergy             22484138460                       # Energy for read commands per rank (pJ)
system.mem_ctrls_0.writeEnergy             2888899380                       # Energy for write commands per rank (pJ)
system.mem_ctrls_0.refreshEnergy         127232323920.000015                       # Energy for refresh commands per rank (pJ)
system.mem_ctrls_0.actBackEnergy          97670226180                       # Energy for active background per rank (pJ)
system.mem_ctrls_0.preBackEnergy           4181065920                       # Energy for precharge background per rank (pJ)
system.mem_ctrls_0.actPowerDownEnergy    490706363490                       # Energy for active power-down per rank (pJ)
system.mem_ctrls_0.prePowerDownEnergy     77763722880                       # Energy for precharge power-down per rank (pJ)
system.mem_ctrls_0.selfRefreshEnergy      58130374950                       # Energy for self refresh per rank (pJ)
system.mem_ctrls_0.totalEnergy           911291694570                       # Total energy per rank (pJ)
system.mem_ctrls_0.averagePower            532.424607                       # Core power per rank (mW)
system.mem_ctrls_0.totalIdleTime         1486462668000                       # Total Idle time Per DRAM Rank
system.mem_ctrls_0.memoryStateTime::IDLE   5066304750                       # Time in different power states
system.mem_ctrls_0.memoryStateTime::REF   53912376000                       # Time in different power states
system.mem_ctrls_0.memoryStateTime::SREF 207846817000                       # Time in different power states
system.mem_ctrls_0.memoryStateTime::PRE_PDN 202507872750                       # Time in different power states
system.mem_ctrls_0.memoryStateTime::ACT  166143029250                       # Time in different power states
system.mem_ctrls_0.memoryStateTime::ACT_PDN 1076111816750                       # Time in different power states
system.mem_ctrls_1.actEnergy              19983139260                       # Energy for activate commands per rank (pJ)
system.mem_ctrls_1.preEnergy              10621290405                       # Energy for precharge commands per rank (pJ)
system.mem_ctrls_1.readEnergy             22826237280                       # Energy for read commands per rank (pJ)
system.mem_ctrls_1.writeEnergy             2891138760                       # Energy for write commands per rank (pJ)
system.mem_ctrls_1.refreshEnergy         127410569520.000015                       # Energy for refresh commands per rank (pJ)
system.mem_ctrls_1.actBackEnergy          98422031670                       # Energy for active background per rank (pJ)
system.mem_ctrls_1.preBackEnergy           4322390880                       # Energy for precharge background per rank (pJ)
system.mem_ctrls_1.actPowerDownEnergy    490165773780                       # Energy for active power-down per rank (pJ)
system.mem_ctrls_1.prePowerDownEnergy     78258858720                       # Energy for precharge power-down per rank (pJ)
system.mem_ctrls_1.selfRefreshEnergy      57631556895                       # Energy for self refresh per rank (pJ)
system.mem_ctrls_1.totalEnergy           912549349710                       # Total energy per rank (pJ)
system.mem_ctrls_1.averagePower            533.159399                       # Core power per rank (mW)
system.mem_ctrls_1.totalIdleTime         1484455300500                       # Total Idle time Per DRAM Rank
system.mem_ctrls_1.memoryStateTime::IDLE   5088812250                       # Time in different power states
system.mem_ctrls_1.memoryStateTime::REF   53987728000                       # Time in different power states
system.mem_ctrls_1.memoryStateTime::SREF 205733809250                       # Time in different power states
system.mem_ctrls_1.memoryStateTime::PRE_PDN 203799928250                       # Time in different power states
system.mem_ctrls_1.memoryStateTime::ACT  168054156000                       # Time in different power states
system.mem_ctrls_1.memoryStateTime::ACT_PDN 1074923782750                       # Time in different power states
system.pwrStateResidencyTicks::UNDEFINED 1711588216500                       # Cumulative time (in ticks) in various power states
system.cpu_voltage_domain.voltage                   1                       # Voltage in Volts
system.cpu_clk_domain.clock                       500                       # Clock period in ticks
system.cpu.dtb.walker.pwrStateResidencyTicks::UNDEFINED 1711588216500                       # Cumulative time (in ticks) in various power states
system.cpu.apic_clk_domain.clock                 8000                       # Clock period in ticks
system.cpu.interrupts.pwrStateResidencyTicks::UNDEFINED 1711588216500                       # Cumulative time (in ticks) in various power states
system.cpu.itb.walker.pwrStateResidencyTicks::UNDEFINED 1711588216500                       # Cumulative time (in ticks) in various power states
system.cpu.workload.num_syscalls                  168                       # Number of system calls
system.cpu.pwrStateResidencyTicks::ON    1711588216500                       # Cumulative time (in ticks) in various power states
system.cpu.numCycles                       3423176433                       # number of cpu cycles simulated
system.cpu.numWorkItemsStarted                      0                       # number of work items this cpu started
system.cpu.numWorkItemsCompleted                    0                       # number of work items this cpu completed
system.cpu.committedInsts                   500000000                       # Number of instructions committed
system.cpu.committedOps                     876313781                       # Number of ops (including micro ops) committed
system.cpu.num_int_alu_accesses             872966677                       # Number of integer alu accesses
system.cpu.num_fp_alu_accesses                2882231                       # Number of float alu accesses
system.cpu.num_func_calls                    11025254                       # number of times a function call or return occured
system.cpu.num_conditional_control_insts     75981009                       # number of instructions that are conditional controls
system.cpu.num_int_insts                    872966677                       # number of integer instructions
system.cpu.num_fp_insts                       2882231                       # number of float instructions
system.cpu.num_int_register_reads          1835046952                       # number of times the integer registers were read
system.cpu.num_int_register_writes          703076416                       # number of times the integer registers were written
system.cpu.num_fp_register_reads              4386063                       # number of times the floating registers were read
system.cpu.num_fp_register_writes             2464405                       # number of times the floating registers were written
system.cpu.num_cc_register_reads            441654669                       # number of times the CC registers were read
system.cpu.num_cc_register_writes           253505512                       # number of times the CC registers were written
system.cpu.num_mem_refs                     293763598                       # number of memory refs
system.cpu.num_load_insts                   221285042                       # Number of load instructions
system.cpu.num_store_insts                   72478556                       # Number of store instructions
system.cpu.num_idle_cycles                          0                       # Number of idle cycles
system.cpu.num_busy_cycles                 3423176433                       # Number of busy cycles
system.cpu.not_idle_fraction                        1                       # Percentage of non-idle cycles
system.cpu.idle_fraction                            0                       # Percentage of idle cycles
system.cpu.Branches                          97901001                       # Number of branches fetched
system.cpu.op_class::No_OpClass                939430      0.11%      0.11% # Class of executed instruction
system.cpu.op_class::IntAlu                 578420252     66.01%     66.11% # Class of executed instruction
system.cpu.op_class::IntMult                   907073      0.10%     66.22% # Class of executed instruction
system.cpu.op_class::IntDiv                        42      0.00%     66.22% # Class of executed instruction
system.cpu.op_class::FloatAdd                 2283386      0.26%     66.48% # Class of executed instruction
system.cpu.op_class::FloatCmp                       0      0.00%     66.48% # Class of executed instruction
system.cpu.op_class::FloatCvt                       0      0.00%     66.48% # Class of executed instruction
system.cpu.op_class::FloatMult                      0      0.00%     66.48% # Class of executed instruction
system.cpu.op_class::FloatDiv                       0      0.00%     66.48% # Class of executed instruction
system.cpu.op_class::FloatSqrt                      0      0.00%     66.48% # Class of executed instruction
system.cpu.op_class::SimdAdd                        0      0.00%     66.48% # Class of executed instruction
system.cpu.op_class::SimdAddAcc                     0      0.00%     66.48% # Class of executed instruction
system.cpu.op_class::SimdAlu                        0      0.00%     66.48% # Class of executed instruction
system.cpu.op_class::SimdCmp                        0      0.00%     66.48% # Class of executed instruction
system.cpu.op_class::SimdCvt                        0      0.00%     66.48% # Class of executed instruction
system.cpu.op_class::SimdMisc                       0      0.00%     66.48% # Class of executed instruction
system.cpu.op_class::SimdMult                       0      0.00%     66.48% # Class of executed instruction
system.cpu.op_class::SimdMultAcc                    0      0.00%     66.48% # Class of executed instruction
system.cpu.op_class::SimdShift                      0      0.00%     66.48% # Class of executed instruction
system.cpu.op_class::SimdShiftAcc                   0      0.00%     66.48% # Class of executed instruction
system.cpu.op_class::SimdSqrt                       0      0.00%     66.48% # Class of executed instruction
system.cpu.op_class::SimdFloatAdd                   0      0.00%     66.48% # Class of executed instruction
system.cpu.op_class::SimdFloatAlu                   0      0.00%     66.48% # Class of executed instruction
system.cpu.op_class::SimdFloatCmp                   0      0.00%     66.48% # Class of executed instruction
system.cpu.op_class::SimdFloatCvt                   0      0.00%     66.48% # Class of executed instruction
system.cpu.op_class::SimdFloatDiv                   0      0.00%     66.48% # Class of executed instruction
system.cpu.op_class::SimdFloatMisc                  0      0.00%     66.48% # Class of executed instruction
system.cpu.op_class::SimdFloatMult                  0      0.00%     66.48% # Class of executed instruction
system.cpu.op_class::SimdFloatMultAcc               0      0.00%     66.48% # Class of executed instruction
system.cpu.op_class::SimdFloatSqrt                  0      0.00%     66.48% # Class of executed instruction
system.cpu.op_class::MemRead                221285042     25.25%     91.73% # Class of executed instruction
system.cpu.op_class::MemWrite                72478556      8.27%    100.00% # Class of executed instruction
system.cpu.op_class::IprAccess                      0      0.00%    100.00% # Class of executed instruction
system.cpu.op_class::InstPrefetch                   0      0.00%    100.00% # Class of executed instruction
system.cpu.op_class::total                  876313781                       # Class of executed instruction
system.cpu.dcache.tags.pwrStateResidencyTicks::UNDEFINED 1711588216500                       # Cumulative time (in ticks) in various power states
system.cpu.dcache.tags.replacements          12807560                       # number of replacements
system.cpu.dcache.tags.tagsinuse          1023.792219                       # Cycle average of tags in use
system.cpu.dcache.tags.total_refs           280969142                       # Total number of references to valid blocks.
system.cpu.dcache.tags.sampled_refs          12808584                       # Sample count of references to valid blocks.
system.cpu.dcache.tags.avg_refs             21.936003                       # Average number of references to valid blocks.
system.cpu.dcache.tags.warmup_cycle        1055810500                       # Cycle when the warmup percentage was hit.
system.cpu.dcache.tags.occ_blocks::cpu.data  1023.792219                       # Average occupied blocks per requestor
system.cpu.dcache.tags.occ_percent::cpu.data     0.999797                       # Average percentage of cache occupancy
system.cpu.dcache.tags.occ_percent::total     0.999797                       # Average percentage of cache occupancy
system.cpu.dcache.tags.occ_task_id_blocks::1024         1024                       # Occupied blocks per task id
system.cpu.dcache.tags.age_task_id_blocks_1024::0            3                       # Occupied blocks per task id
system.cpu.dcache.tags.age_task_id_blocks_1024::1          610                       # Occupied blocks per task id
system.cpu.dcache.tags.age_task_id_blocks_1024::2          401                       # Occupied blocks per task id
system.cpu.dcache.tags.age_task_id_blocks_1024::3            9                       # Occupied blocks per task id
system.cpu.dcache.tags.age_task_id_blocks_1024::4            1                       # Occupied blocks per task id
system.cpu.dcache.tags.occ_task_id_percent::1024            1                       # Percentage of cache occupancy per task id
system.cpu.dcache.tags.tag_accesses         600364036                       # Number of tag accesses
system.cpu.dcache.tags.data_accesses        600364036                       # Number of data accesses
system.cpu.dcache.pwrStateResidencyTicks::UNDEFINED 1711588216500                       # Cumulative time (in ticks) in various power states
system.cpu.dcache.ReadReq_hits::cpu.data    209004168                       # number of ReadReq hits
system.cpu.dcache.ReadReq_hits::total       209004168                       # number of ReadReq hits
system.cpu.dcache.WriteReq_hits::cpu.data     71964974                       # number of WriteReq hits
system.cpu.dcache.WriteReq_hits::total       71964974                       # number of WriteReq hits
system.cpu.dcache.demand_hits::cpu.data     280969142                       # number of demand (read+write) hits
system.cpu.dcache.demand_hits::total        280969142                       # number of demand (read+write) hits
system.cpu.dcache.overall_hits::cpu.data    280969142                       # number of overall hits
system.cpu.dcache.overall_hits::total       280969142                       # number of overall hits
system.cpu.dcache.ReadReq_misses::cpu.data     12295001                       # number of ReadReq misses
system.cpu.dcache.ReadReq_misses::total      12295001                       # number of ReadReq misses
system.cpu.dcache.WriteReq_misses::cpu.data       513583                       # number of WriteReq misses
system.cpu.dcache.WriteReq_misses::total       513583                       # number of WriteReq misses
system.cpu.dcache.demand_misses::cpu.data     12808584                       # number of demand (read+write) misses
system.cpu.dcache.demand_misses::total       12808584                       # number of demand (read+write) misses
system.cpu.dcache.overall_misses::cpu.data     12808584                       # number of overall misses
system.cpu.dcache.overall_misses::total      12808584                       # number of overall misses
system.cpu.dcache.ReadReq_miss_latency::cpu.data 717486609500                       # number of ReadReq miss cycles
system.cpu.dcache.ReadReq_miss_latency::total 717486609500                       # number of ReadReq miss cycles
system.cpu.dcache.WriteReq_miss_latency::cpu.data  24950968000                       # number of WriteReq miss cycles
system.cpu.dcache.WriteReq_miss_latency::total  24950968000                       # number of WriteReq miss cycles
system.cpu.dcache.demand_miss_latency::cpu.data 742437577500                       # number of demand (read+write) miss cycles
system.cpu.dcache.demand_miss_latency::total 742437577500                       # number of demand (read+write) miss cycles
system.cpu.dcache.overall_miss_latency::cpu.data 742437577500                       # number of overall miss cycles
system.cpu.dcache.overall_miss_latency::total 742437577500                       # number of overall miss cycles
system.cpu.dcache.ReadReq_accesses::cpu.data    221299169                       # number of ReadReq accesses(hits+misses)
system.cpu.dcache.ReadReq_accesses::total    221299169                       # number of ReadReq accesses(hits+misses)
system.cpu.dcache.WriteReq_accesses::cpu.data     72478557                       # number of WriteReq accesses(hits+misses)
system.cpu.dcache.WriteReq_accesses::total     72478557                       # number of WriteReq accesses(hits+misses)
system.cpu.dcache.demand_accesses::cpu.data    293777726                       # number of demand (read+write) accesses
system.cpu.dcache.demand_accesses::total    293777726                       # number of demand (read+write) accesses
system.cpu.dcache.overall_accesses::cpu.data    293777726                       # number of overall (read+write) accesses
system.cpu.dcache.overall_accesses::total    293777726                       # number of overall (read+write) accesses
system.cpu.dcache.ReadReq_miss_rate::cpu.data     0.055558                       # miss rate for ReadReq accesses
system.cpu.dcache.ReadReq_miss_rate::total     0.055558                       # miss rate for ReadReq accesses
system.cpu.dcache.WriteReq_miss_rate::cpu.data     0.007086                       # miss rate for WriteReq accesses
system.cpu.dcache.WriteReq_miss_rate::total     0.007086                       # miss rate for WriteReq accesses
system.cpu.dcache.demand_miss_rate::cpu.data     0.043600                       # miss rate for demand accesses
system.cpu.dcache.demand_miss_rate::total     0.043600                       # miss rate for demand accesses
system.cpu.dcache.overall_miss_rate::cpu.data     0.043600                       # miss rate for overall accesses
system.cpu.dcache.overall_miss_rate::total     0.043600                       # miss rate for overall accesses
system.cpu.dcache.ReadReq_avg_miss_latency::cpu.data 58355.961866                       # average ReadReq miss latency
system.cpu.dcache.ReadReq_avg_miss_latency::total 58355.961866                       # average ReadReq miss latency
system.cpu.dcache.WriteReq_avg_miss_latency::cpu.data 48582.153225                       # average WriteReq miss latency
system.cpu.dcache.WriteReq_avg_miss_latency::total 48582.153225                       # average WriteReq miss latency
system.cpu.dcache.demand_avg_miss_latency::cpu.data 57964.063592                       # average overall miss latency
system.cpu.dcache.demand_avg_miss_latency::total 57964.063592                       # average overall miss latency
system.cpu.dcache.overall_avg_miss_latency::cpu.data 57964.063592                       # average overall miss latency
system.cpu.dcache.overall_avg_miss_latency::total 57964.063592                       # average overall miss latency
system.cpu.dcache.blocked_cycles::no_mshrs            0                       # number of cycles access was blocked
system.cpu.dcache.blocked_cycles::no_targets            0                       # number of cycles access was blocked
system.cpu.dcache.blocked::no_mshrs                 0                       # number of cycles access was blocked
system.cpu.dcache.blocked::no_targets               0                       # number of cycles access was blocked
system.cpu.dcache.avg_blocked_cycles::no_mshrs          nan                       # average number of cycles each access was blocked
system.cpu.dcache.avg_blocked_cycles::no_targets          nan                       # average number of cycles each access was blocked
system.cpu.dcache.writebacks::writebacks      3723917                       # number of writebacks
system.cpu.dcache.writebacks::total           3723917                       # number of writebacks
system.cpu.dcache.ReadReq_mshr_misses::cpu.data     12295001                       # number of ReadReq MSHR misses
system.cpu.dcache.ReadReq_mshr_misses::total     12295001                       # number of ReadReq MSHR misses
system.cpu.dcache.WriteReq_mshr_misses::cpu.data       513583                       # number of WriteReq MSHR misses
system.cpu.dcache.WriteReq_mshr_misses::total       513583                       # number of WriteReq MSHR misses
system.cpu.dcache.demand_mshr_misses::cpu.data     12808584                       # number of demand (read+write) MSHR misses
system.cpu.dcache.demand_mshr_misses::total     12808584                       # number of demand (read+write) MSHR misses
system.cpu.dcache.overall_mshr_misses::cpu.data     12808584                       # number of overall MSHR misses
system.cpu.dcache.overall_mshr_misses::total     12808584                       # number of overall MSHR misses
system.cpu.dcache.ReadReq_mshr_miss_latency::cpu.data 705191608500                       # number of ReadReq MSHR miss cycles
system.cpu.dcache.ReadReq_mshr_miss_latency::total 705191608500                       # number of ReadReq MSHR miss cycles
system.cpu.dcache.WriteReq_mshr_miss_latency::cpu.data  24437385000                       # number of WriteReq MSHR miss cycles
system.cpu.dcache.WriteReq_mshr_miss_latency::total  24437385000                       # number of WriteReq MSHR miss cycles
system.cpu.dcache.demand_mshr_miss_latency::cpu.data 729628993500                       # number of demand (read+write) MSHR miss cycles
system.cpu.dcache.demand_mshr_miss_latency::total 729628993500                       # number of demand (read+write) MSHR miss cycles
system.cpu.dcache.overall_mshr_miss_latency::cpu.data 729628993500                       # number of overall MSHR miss cycles
system.cpu.dcache.overall_mshr_miss_latency::total 729628993500                       # number of overall MSHR miss cycles
system.cpu.dcache.ReadReq_mshr_miss_rate::cpu.data     0.055558                       # mshr miss rate for ReadReq accesses
system.cpu.dcache.ReadReq_mshr_miss_rate::total     0.055558                       # mshr miss rate for ReadReq accesses
system.cpu.dcache.WriteReq_mshr_miss_rate::cpu.data     0.007086                       # mshr miss rate for WriteReq accesses
system.cpu.dcache.WriteReq_mshr_miss_rate::total     0.007086                       # mshr miss rate for WriteReq accesses
system.cpu.dcache.demand_mshr_miss_rate::cpu.data     0.043600                       # mshr miss rate for demand accesses
system.cpu.dcache.demand_mshr_miss_rate::total     0.043600                       # mshr miss rate for demand accesses
system.cpu.dcache.overall_mshr_miss_rate::cpu.data     0.043600                       # mshr miss rate for overall accesses
system.cpu.dcache.overall_mshr_miss_rate::total     0.043600                       # mshr miss rate for overall accesses
system.cpu.dcache.ReadReq_avg_mshr_miss_latency::cpu.data 57355.961866                       # average ReadReq mshr miss latency
system.cpu.dcache.ReadReq_avg_mshr_miss_latency::total 57355.961866                       # average ReadReq mshr miss latency
system.cpu.dcache.WriteReq_avg_mshr_miss_latency::cpu.data 47582.153225                       # average WriteReq mshr miss latency
system.cpu.dcache.WriteReq_avg_mshr_miss_latency::total 47582.153225                       # average WriteReq mshr miss latency
system.cpu.dcache.demand_avg_mshr_miss_latency::cpu.data 56964.063592                       # average overall mshr miss latency
system.cpu.dcache.demand_avg_mshr_miss_latency::total 56964.063592                       # average overall mshr miss latency
system.cpu.dcache.overall_avg_mshr_miss_latency::cpu.data 56964.063592                       # average overall mshr miss latency
system.cpu.dcache.overall_avg_mshr_miss_latency::total 56964.063592                       # average overall mshr miss latency
system.cpu.dtb_walker_cache.tags.pwrStateResidencyTicks::UNDEFINED 1711588216500                       # Cumulative time (in ticks) in various power states
system.cpu.dtb_walker_cache.tags.replacements            0                       # number of replacements
system.cpu.dtb_walker_cache.tags.tagsinuse            0                       # Cycle average of tags in use
system.cpu.dtb_walker_cache.tags.total_refs            0                       # Total number of references to valid blocks.
system.cpu.dtb_walker_cache.tags.sampled_refs            0                       # Sample count of references to valid blocks.
system.cpu.dtb_walker_cache.tags.avg_refs          nan                       # Average number of references to valid blocks.
system.cpu.dtb_walker_cache.tags.warmup_cycle            0                       # Cycle when the warmup percentage was hit.
system.cpu.dtb_walker_cache.tags.tag_accesses            0                       # Number of tag accesses
system.cpu.dtb_walker_cache.tags.data_accesses            0                       # Number of data accesses
system.cpu.dtb_walker_cache.pwrStateResidencyTicks::UNDEFINED 1711588216500                       # Cumulative time (in ticks) in various power states
system.cpu.dtb_walker_cache.blocked_cycles::no_mshrs            0                       # number of cycles access was blocked
system.cpu.dtb_walker_cache.blocked_cycles::no_targets            0                       # number of cycles access was blocked
system.cpu.dtb_walker_cache.blocked::no_mshrs            0                       # number of cycles access was blocked
system.cpu.dtb_walker_cache.blocked::no_targets            0                       # number of cycles access was blocked
system.cpu.dtb_walker_cache.avg_blocked_cycles::no_mshrs          nan                       # average number of cycles each access was blocked
system.cpu.dtb_walker_cache.avg_blocked_cycles::no_targets          nan                       # average number of cycles each access was blocked
system.cpu.icache.tags.pwrStateResidencyTicks::UNDEFINED 1711588216500                       # Cumulative time (in ticks) in various power states
system.cpu.icache.tags.replacements            901102                       # number of replacements
system.cpu.icache.tags.tagsinuse           254.380684                       # Cycle average of tags in use
system.cpu.icache.tags.total_refs           676416586                       # Total number of references to valid blocks.
system.cpu.icache.tags.sampled_refs            901358                       # Sample count of references to valid blocks.
system.cpu.icache.tags.avg_refs            750.441651                       # Average number of references to valid blocks.
system.cpu.icache.tags.warmup_cycle      358762182500                       # Cycle when the warmup percentage was hit.
system.cpu.icache.tags.occ_blocks::cpu.inst   254.380684                       # Average occupied blocks per requestor
system.cpu.icache.tags.occ_percent::cpu.inst     0.993675                       # Average percentage of cache occupancy
system.cpu.icache.tags.occ_percent::total     0.993675                       # Average percentage of cache occupancy
system.cpu.icache.tags.occ_task_id_blocks::1024          256                       # Occupied blocks per task id
system.cpu.icache.tags.age_task_id_blocks_1024::4          256                       # Occupied blocks per task id
system.cpu.icache.tags.occ_task_id_percent::1024            1                       # Percentage of cache occupancy per task id
system.cpu.icache.tags.tag_accesses        1355537246                       # Number of tag accesses
system.cpu.icache.tags.data_accesses       1355537246                       # Number of data accesses
system.cpu.icache.pwrStateResidencyTicks::UNDEFINED 1711588216500                       # Cumulative time (in ticks) in various power states
system.cpu.icache.ReadReq_hits::cpu.inst    676416586                       # number of ReadReq hits
system.cpu.icache.ReadReq_hits::total       676416586                       # number of ReadReq hits
system.cpu.icache.demand_hits::cpu.inst     676416586                       # number of demand (read+write) hits
system.cpu.icache.demand_hits::total        676416586                       # number of demand (read+write) hits
system.cpu.icache.overall_hits::cpu.inst    676416586                       # number of overall hits
system.cpu.icache.overall_hits::total       676416586                       # number of overall hits
system.cpu.icache.ReadReq_misses::cpu.inst       901358                       # number of ReadReq misses
system.cpu.icache.ReadReq_misses::total        901358                       # number of ReadReq misses
system.cpu.icache.demand_misses::cpu.inst       901358                       # number of demand (read+write) misses
system.cpu.icache.demand_misses::total         901358                       # number of demand (read+write) misses
system.cpu.icache.overall_misses::cpu.inst       901358                       # number of overall misses
system.cpu.icache.overall_misses::total        901358                       # number of overall misses
system.cpu.icache.ReadReq_miss_latency::cpu.inst  11771977500                       # number of ReadReq miss cycles
system.cpu.icache.ReadReq_miss_latency::total  11771977500                       # number of ReadReq miss cycles
system.cpu.icache.demand_miss_latency::cpu.inst  11771977500                       # number of demand (read+write) miss cycles
system.cpu.icache.demand_miss_latency::total  11771977500                       # number of demand (read+write) miss cycles
system.cpu.icache.overall_miss_latency::cpu.inst  11771977500                       # number of overall miss cycles
system.cpu.icache.overall_miss_latency::total  11771977500                       # number of overall miss cycles
system.cpu.icache.ReadReq_accesses::cpu.inst    677317944                       # number of ReadReq accesses(hits+misses)
system.cpu.icache.ReadReq_accesses::total    677317944                       # number of ReadReq accesses(hits+misses)
system.cpu.icache.demand_accesses::cpu.inst    677317944                       # number of demand (read+write) accesses
system.cpu.icache.demand_accesses::total    677317944                       # number of demand (read+write) accesses
system.cpu.icache.overall_accesses::cpu.inst    677317944                       # number of overall (read+write) accesses
system.cpu.icache.overall_accesses::total    677317944                       # number of overall (read+write) accesses
system.cpu.icache.ReadReq_miss_rate::cpu.inst     0.001331                       # miss rate for ReadReq accesses
system.cpu.icache.ReadReq_miss_rate::total     0.001331                       # miss rate for ReadReq accesses
system.cpu.icache.demand_miss_rate::cpu.inst     0.001331                       # miss rate for demand accesses
system.cpu.icache.demand_miss_rate::total     0.001331                       # miss rate for demand accesses
system.cpu.icache.overall_miss_rate::cpu.inst     0.001331                       # miss rate for overall accesses
system.cpu.icache.overall_miss_rate::total     0.001331                       # miss rate for overall accesses
system.cpu.icache.ReadReq_avg_miss_latency::cpu.inst 13060.268506                       # average ReadReq miss latency
system.cpu.icache.ReadReq_avg_miss_latency::total 13060.268506                       # average ReadReq miss latency
system.cpu.icache.demand_avg_miss_latency::cpu.inst 13060.268506                       # average overall miss latency
system.cpu.icache.demand_avg_miss_latency::total 13060.268506                       # average overall miss latency
system.cpu.icache.overall_avg_miss_latency::cpu.inst 13060.268506                       # average overall miss latency
system.cpu.icache.overall_avg_miss_latency::total 13060.268506                       # average overall miss latency
system.cpu.icache.blocked_cycles::no_mshrs            0                       # number of cycles access was blocked
system.cpu.icache.blocked_cycles::no_targets            0                       # number of cycles access was blocked
system.cpu.icache.blocked::no_mshrs                 0                       # number of cycles access was blocked
system.cpu.icache.blocked::no_targets               0                       # number of cycles access was blocked
system.cpu.icache.avg_blocked_cycles::no_mshrs          nan                       # average number of cycles each access was blocked
system.cpu.icache.avg_blocked_cycles::no_targets          nan                       # average number of cycles each access was blocked
system.cpu.icache.writebacks::writebacks       901102                       # number of writebacks
system.cpu.icache.writebacks::total            901102                       # number of writebacks
system.cpu.icache.ReadReq_mshr_misses::cpu.inst       901358                       # number of ReadReq MSHR misses
system.cpu.icache.ReadReq_mshr_misses::total       901358                       # number of ReadReq MSHR misses
system.cpu.icache.demand_mshr_misses::cpu.inst       901358                       # number of demand (read+write) MSHR misses
system.cpu.icache.demand_mshr_misses::total       901358                       # number of demand (read+write) MSHR misses
system.cpu.icache.overall_mshr_misses::cpu.inst       901358                       # number of overall MSHR misses
system.cpu.icache.overall_mshr_misses::total       901358                       # number of overall MSHR misses
system.cpu.icache.ReadReq_mshr_miss_latency::cpu.inst  10870619500                       # number of ReadReq MSHR miss cycles
system.cpu.icache.ReadReq_mshr_miss_latency::total  10870619500                       # number of ReadReq MSHR miss cycles
system.cpu.icache.demand_mshr_miss_latency::cpu.inst  10870619500                       # number of demand (read+write) MSHR miss cycles
system.cpu.icache.demand_mshr_miss_latency::total  10870619500                       # number of demand (read+write) MSHR miss cycles
system.cpu.icache.overall_mshr_miss_latency::cpu.inst  10870619500                       # number of overall MSHR miss cycles
system.cpu.icache.overall_mshr_miss_latency::total  10870619500                       # number of overall MSHR miss cycles
system.cpu.icache.ReadReq_mshr_miss_rate::cpu.inst     0.001331                       # mshr miss rate for ReadReq accesses
system.cpu.icache.ReadReq_mshr_miss_rate::total     0.001331                       # mshr miss rate for ReadReq accesses
system.cpu.icache.demand_mshr_miss_rate::cpu.inst     0.001331                       # mshr miss rate for demand accesses
system.cpu.icache.demand_mshr_miss_rate::total     0.001331                       # mshr miss rate for demand accesses
system.cpu.icache.overall_mshr_miss_rate::cpu.inst     0.001331                       # mshr miss rate for overall accesses
system.cpu.icache.overall_mshr_miss_rate::total     0.001331                       # mshr miss rate for overall accesses
system.cpu.icache.ReadReq_avg_mshr_miss_latency::cpu.inst 12060.268506                       # average ReadReq mshr miss latency
system.cpu.icache.ReadReq_avg_mshr_miss_latency::total 12060.268506                       # average ReadReq mshr miss latency
system.cpu.icache.demand_avg_mshr_miss_latency::cpu.inst 12060.268506                       # average overall mshr miss latency
system.cpu.icache.demand_avg_mshr_miss_latency::total 12060.268506                       # average overall mshr miss latency
system.cpu.icache.overall_avg_mshr_miss_latency::cpu.inst 12060.268506                       # average overall mshr miss latency
system.cpu.icache.overall_avg_mshr_miss_latency::total 12060.268506                       # average overall mshr miss latency
system.cpu.itb_walker_cache.tags.pwrStateResidencyTicks::UNDEFINED 1711588216500                       # Cumulative time (in ticks) in various power states
system.cpu.itb_walker_cache.tags.replacements            0                       # number of replacements
system.cpu.itb_walker_cache.tags.tagsinuse            0                       # Cycle average of tags in use
system.cpu.itb_walker_cache.tags.total_refs            0                       # Total number of references to valid blocks.
system.cpu.itb_walker_cache.tags.sampled_refs            0                       # Sample count of references to valid blocks.
system.cpu.itb_walker_cache.tags.avg_refs          nan                       # Average number of references to valid blocks.
system.cpu.itb_walker_cache.tags.warmup_cycle            0                       # Cycle when the warmup percentage was hit.
system.cpu.itb_walker_cache.tags.tag_accesses            0                       # Number of tag accesses
system.cpu.itb_walker_cache.tags.data_accesses            0                       # Number of data accesses
system.cpu.itb_walker_cache.pwrStateResidencyTicks::UNDEFINED 1711588216500                       # Cumulative time (in ticks) in various power states
system.cpu.itb_walker_cache.blocked_cycles::no_mshrs            0                       # number of cycles access was blocked
system.cpu.itb_walker_cache.blocked_cycles::no_targets            0                       # number of cycles access was blocked
system.cpu.itb_walker_cache.blocked::no_mshrs            0                       # number of cycles access was blocked
system.cpu.itb_walker_cache.blocked::no_targets            0                       # number of cycles access was blocked
system.cpu.itb_walker_cache.avg_blocked_cycles::no_mshrs          nan                       # average number of cycles each access was blocked
system.cpu.itb_walker_cache.avg_blocked_cycles::no_targets          nan                       # average number of cycles each access was blocked
system.l2.tags.pwrStateResidencyTicks::UNDEFINED 1711588216500                       # Cumulative time (in ticks) in various power states
system.l2.tags.replacements                   6356956                       # number of replacements
system.l2.tags.tagsinuse                 16331.676461                       # Cycle average of tags in use
system.l2.tags.total_refs                    21004788                       # Total number of references to valid blocks.
system.l2.tags.sampled_refs                   6373340                       # Sample count of references to valid blocks.
system.l2.tags.avg_refs                      3.295727                       # Average number of references to valid blocks.
system.l2.tags.warmup_cycle               12742902000                       # Cycle when the warmup percentage was hit.
system.l2.tags.occ_blocks::writebacks       56.437985                       # Average occupied blocks per requestor
system.l2.tags.occ_blocks::cpu.inst          4.333008                       # Average occupied blocks per requestor
system.l2.tags.occ_blocks::cpu.data      16270.905468                       # Average occupied blocks per requestor
system.l2.tags.occ_percent::writebacks       0.003445                       # Average percentage of cache occupancy
system.l2.tags.occ_percent::cpu.inst         0.000264                       # Average percentage of cache occupancy
system.l2.tags.occ_percent::cpu.data         0.993097                       # Average percentage of cache occupancy
system.l2.tags.occ_percent::total            0.996806                       # Average percentage of cache occupancy
system.l2.tags.occ_task_id_blocks::1024         16384                       # Occupied blocks per task id
system.l2.tags.age_task_id_blocks_1024::1          369                       # Occupied blocks per task id
system.l2.tags.age_task_id_blocks_1024::2         3326                       # Occupied blocks per task id
system.l2.tags.age_task_id_blocks_1024::3         9218                       # Occupied blocks per task id
system.l2.tags.age_task_id_blocks_1024::4         3471                       # Occupied blocks per task id
system.l2.tags.occ_task_id_percent::1024            1                       # Percentage of cache occupancy per task id
system.l2.tags.tag_accesses                  61210546                       # Number of tag accesses
system.l2.tags.data_accesses                 61210546                       # Number of data accesses
system.l2.pwrStateResidencyTicks::UNDEFINED 1711588216500                       # Cumulative time (in ticks) in various power states
system.l2.WritebackDirty_hits::writebacks      3723917                       # number of WritebackDirty hits
system.l2.WritebackDirty_hits::total          3723917                       # number of WritebackDirty hits
system.l2.WritebackClean_hits::writebacks       901101                       # number of WritebackClean hits
system.l2.WritebackClean_hits::total           901101                       # number of WritebackClean hits
system.l2.ReadExReq_hits::cpu.data             304782                       # number of ReadExReq hits
system.l2.ReadExReq_hits::total                304782                       # number of ReadExReq hits
system.l2.ReadCleanReq_hits::cpu.inst          900656                       # number of ReadCleanReq hits
system.l2.ReadCleanReq_hits::total             900656                       # number of ReadCleanReq hits
system.l2.ReadSharedReq_hits::cpu.data        6150428                       # number of ReadSharedReq hits
system.l2.ReadSharedReq_hits::total           6150428                       # number of ReadSharedReq hits
system.l2.demand_hits::cpu.inst                900656                       # number of demand (read+write) hits
system.l2.demand_hits::cpu.data               6455210                       # number of demand (read+write) hits
system.l2.demand_hits::total                  7355866                       # number of demand (read+write) hits
system.l2.overall_hits::cpu.inst               900656                       # number of overall hits
system.l2.overall_hits::cpu.data              6455210                       # number of overall hits
system.l2.overall_hits::total                 7355866                       # number of overall hits
system.l2.ReadExReq_misses::cpu.data           208801                       # number of ReadExReq misses
system.l2.ReadExReq_misses::total              208801                       # number of ReadExReq misses
system.l2.ReadCleanReq_misses::cpu.inst           702                       # number of ReadCleanReq misses
system.l2.ReadCleanReq_misses::total              702                       # number of ReadCleanReq misses
system.l2.ReadSharedReq_misses::cpu.data      6144573                       # number of ReadSharedReq misses
system.l2.ReadSharedReq_misses::total         6144573                       # number of ReadSharedReq misses
system.l2.demand_misses::cpu.inst                 702                       # number of demand (read+write) misses
system.l2.demand_misses::cpu.data             6353374                       # number of demand (read+write) misses
system.l2.demand_misses::total                6354076                       # number of demand (read+write) misses
system.l2.overall_misses::cpu.inst                702                       # number of overall misses
system.l2.overall_misses::cpu.data            6353374                       # number of overall misses
system.l2.overall_misses::total               6354076                       # number of overall misses
system.l2.ReadExReq_miss_latency::cpu.data  20463804000                       # number of ReadExReq miss cycles
system.l2.ReadExReq_miss_latency::total   20463804000                       # number of ReadExReq miss cycles
system.l2.ReadCleanReq_miss_latency::cpu.inst     61686500                       # number of ReadCleanReq miss cycles
system.l2.ReadCleanReq_miss_latency::total     61686500                       # number of ReadCleanReq miss cycles
system.l2.ReadSharedReq_miss_latency::cpu.data 622169606000                       # number of ReadSharedReq miss cycles
system.l2.ReadSharedReq_miss_latency::total 622169606000                       # number of ReadSharedReq miss cycles
system.l2.demand_miss_latency::cpu.inst      61686500                       # number of demand (read+write) miss cycles
system.l2.demand_miss_latency::cpu.data  642633410000                       # number of demand (read+write) miss cycles
system.l2.demand_miss_latency::total     642695096500                       # number of demand (read+write) miss cycles
system.l2.overall_miss_latency::cpu.inst     61686500                       # number of overall miss cycles
system.l2.overall_miss_latency::cpu.data 642633410000                       # number of overall miss cycles
system.l2.overall_miss_latency::total    642695096500                       # number of overall miss cycles
system.l2.WritebackDirty_accesses::writebacks      3723917                       # number of WritebackDirty accesses(hits+misses)
system.l2.WritebackDirty_accesses::total      3723917                       # number of WritebackDirty accesses(hits+misses)
system.l2.WritebackClean_accesses::writebacks       901101                       # number of WritebackClean accesses(hits+misses)
system.l2.WritebackClean_accesses::total       901101                       # number of WritebackClean accesses(hits+misses)
system.l2.ReadExReq_accesses::cpu.data         513583                       # number of ReadExReq accesses(hits+misses)
system.l2.ReadExReq_accesses::total            513583                       # number of ReadExReq accesses(hits+misses)
system.l2.ReadCleanReq_accesses::cpu.inst       901358                       # number of ReadCleanReq accesses(hits+misses)
system.l2.ReadCleanReq_accesses::total         901358                       # number of ReadCleanReq accesses(hits+misses)
system.l2.ReadSharedReq_accesses::cpu.data     12295001                       # number of ReadSharedReq accesses(hits+misses)
system.l2.ReadSharedReq_accesses::total      12295001                       # number of ReadSharedReq accesses(hits+misses)
system.l2.demand_accesses::cpu.inst            901358                       # number of demand (read+write) accesses
system.l2.demand_accesses::cpu.data          12808584                       # number of demand (read+write) accesses
system.l2.demand_accesses::total             13709942                       # number of demand (read+write) accesses
system.l2.overall_accesses::cpu.inst           901358                       # number of overall (read+write) accesses
system.l2.overall_accesses::cpu.data         12808584                       # number of overall (read+write) accesses
system.l2.overall_accesses::total            13709942                       # number of overall (read+write) accesses
system.l2.ReadExReq_miss_rate::cpu.data      0.406557                       # miss rate for ReadExReq accesses
system.l2.ReadExReq_miss_rate::total         0.406557                       # miss rate for ReadExReq accesses
system.l2.ReadCleanReq_miss_rate::cpu.inst     0.000779                       # miss rate for ReadCleanReq accesses
system.l2.ReadCleanReq_miss_rate::total      0.000779                       # miss rate for ReadCleanReq accesses
system.l2.ReadSharedReq_miss_rate::cpu.data     0.499762                       # miss rate for ReadSharedReq accesses
system.l2.ReadSharedReq_miss_rate::total     0.499762                       # miss rate for ReadSharedReq accesses
system.l2.demand_miss_rate::cpu.inst         0.000779                       # miss rate for demand accesses
system.l2.demand_miss_rate::cpu.data         0.496025                       # miss rate for demand accesses
system.l2.demand_miss_rate::total            0.463465                       # miss rate for demand accesses
system.l2.overall_miss_rate::cpu.inst        0.000779                       # miss rate for overall accesses
system.l2.overall_miss_rate::cpu.data        0.496025                       # miss rate for overall accesses
system.l2.overall_miss_rate::total           0.463465                       # miss rate for overall accesses
system.l2.ReadExReq_avg_miss_latency::cpu.data 98006.254759                       # average ReadExReq miss latency
system.l2.ReadExReq_avg_miss_latency::total 98006.254759                       # average ReadExReq miss latency
system.l2.ReadCleanReq_avg_miss_latency::cpu.inst 87872.507123                       # average ReadCleanReq miss latency
system.l2.ReadCleanReq_avg_miss_latency::total 87872.507123                       # average ReadCleanReq miss latency
system.l2.ReadSharedReq_avg_miss_latency::cpu.data 101255.141081                       # average ReadSharedReq miss latency
system.l2.ReadSharedReq_avg_miss_latency::total 101255.141081                       # average ReadSharedReq miss latency
system.l2.demand_avg_miss_latency::cpu.inst 87872.507123                       # average overall miss latency
system.l2.demand_avg_miss_latency::cpu.data 101148.367781                       # average overall miss latency
system.l2.demand_avg_miss_latency::total 101146.901060                       # average overall miss latency
system.l2.overall_avg_miss_latency::cpu.inst 87872.507123                       # average overall miss latency
system.l2.overall_avg_miss_latency::cpu.data 101148.367781                       # average overall miss latency
system.l2.overall_avg_miss_latency::total 101146.901060                       # average overall miss latency
system.l2.blocked_cycles::no_mshrs                  0                       # number of cycles access was blocked
system.l2.blocked_cycles::no_targets                0                       # number of cycles access was blocked
system.l2.blocked::no_mshrs                         0                       # number of cycles access was blocked
system.l2.blocked::no_targets                       0                       # number of cycles access was blocked
system.l2.avg_blocked_cycles::no_mshrs            nan                       # average number of cycles each access was blocked
system.l2.avg_blocked_cycles::no_targets          nan                       # average number of cycles each access was blocked
system.l2.writebacks::writebacks              1107323                       # number of writebacks
system.l2.writebacks::total                   1107323                       # number of writebacks
system.l2.CleanEvict_mshr_misses::writebacks        40475                       # number of CleanEvict MSHR misses
system.l2.CleanEvict_mshr_misses::total         40475                       # number of CleanEvict MSHR misses
system.l2.ReadExReq_mshr_misses::cpu.data       208801                       # number of ReadExReq MSHR misses
system.l2.ReadExReq_mshr_misses::total         208801                       # number of ReadExReq MSHR misses
system.l2.ReadCleanReq_mshr_misses::cpu.inst          702                       # number of ReadCleanReq MSHR misses
system.l2.ReadCleanReq_mshr_misses::total          702                       # number of ReadCleanReq MSHR misses
system.l2.ReadSharedReq_mshr_misses::cpu.data      6144573                       # number of ReadSharedReq MSHR misses
system.l2.ReadSharedReq_mshr_misses::total      6144573                       # number of ReadSharedReq MSHR misses
system.l2.demand_mshr_misses::cpu.inst            702                       # number of demand (read+write) MSHR misses
system.l2.demand_mshr_misses::cpu.data        6353374                       # number of demand (read+write) MSHR misses
system.l2.demand_mshr_misses::total           6354076                       # number of demand (read+write) MSHR misses
system.l2.overall_mshr_misses::cpu.inst           702                       # number of overall MSHR misses
system.l2.overall_mshr_misses::cpu.data       6353374                       # number of overall MSHR misses
system.l2.overall_mshr_misses::total          6354076                       # number of overall MSHR misses
system.l2.ReadExReq_mshr_miss_latency::cpu.data  18375794000                       # number of ReadExReq MSHR miss cycles
system.l2.ReadExReq_mshr_miss_latency::total  18375794000                       # number of ReadExReq MSHR miss cycles
system.l2.ReadCleanReq_mshr_miss_latency::cpu.inst     54666500                       # number of ReadCleanReq MSHR miss cycles
system.l2.ReadCleanReq_mshr_miss_latency::total     54666500                       # number of ReadCleanReq MSHR miss cycles
system.l2.ReadSharedReq_mshr_miss_latency::cpu.data 560723876000                       # number of ReadSharedReq MSHR miss cycles
system.l2.ReadSharedReq_mshr_miss_latency::total 560723876000                       # number of ReadSharedReq MSHR miss cycles
system.l2.demand_mshr_miss_latency::cpu.inst     54666500                       # number of demand (read+write) MSHR miss cycles
system.l2.demand_mshr_miss_latency::cpu.data 579099670000                       # number of demand (read+write) MSHR miss cycles
system.l2.demand_mshr_miss_latency::total 579154336500                       # number of demand (read+write) MSHR miss cycles
system.l2.overall_mshr_miss_latency::cpu.inst     54666500                       # number of overall MSHR miss cycles
system.l2.overall_mshr_miss_latency::cpu.data 579099670000                       # number of overall MSHR miss cycles
system.l2.overall_mshr_miss_latency::total 579154336500                       # number of overall MSHR miss cycles
system.l2.CleanEvict_mshr_miss_rate::writebacks          inf                       # mshr miss rate for CleanEvict accesses
system.l2.CleanEvict_mshr_miss_rate::total          inf                       # mshr miss rate for CleanEvict accesses
system.l2.ReadExReq_mshr_miss_rate::cpu.data     0.406557                       # mshr miss rate for ReadExReq accesses
system.l2.ReadExReq_mshr_miss_rate::total     0.406557                       # mshr miss rate for ReadExReq accesses
system.l2.ReadCleanReq_mshr_miss_rate::cpu.inst     0.000779                       # mshr miss rate for ReadCleanReq accesses
system.l2.ReadCleanReq_mshr_miss_rate::total     0.000779                       # mshr miss rate for ReadCleanReq accesses
system.l2.ReadSharedReq_mshr_miss_rate::cpu.data     0.499762                       # mshr miss rate for ReadSharedReq accesses
system.l2.ReadSharedReq_mshr_miss_rate::total     0.499762                       # mshr miss rate for ReadSharedReq accesses
system.l2.demand_mshr_miss_rate::cpu.inst     0.000779                       # mshr miss rate for demand accesses
system.l2.demand_mshr_miss_rate::cpu.data     0.496025                       # mshr miss rate for demand accesses
system.l2.demand_mshr_miss_rate::total       0.463465                       # mshr miss rate for demand accesses
system.l2.overall_mshr_miss_rate::cpu.inst     0.000779                       # mshr miss rate for overall accesses
system.l2.overall_mshr_miss_rate::cpu.data     0.496025                       # mshr miss rate for overall accesses
system.l2.overall_mshr_miss_rate::total      0.463465                       # mshr miss rate for overall accesses
system.l2.ReadExReq_avg_mshr_miss_latency::cpu.data 88006.254759                       # average ReadExReq mshr miss latency
system.l2.ReadExReq_avg_mshr_miss_latency::total 88006.254759                       # average ReadExReq mshr miss latency
system.l2.ReadCleanReq_avg_mshr_miss_latency::cpu.inst 77872.507123                       # average ReadCleanReq mshr miss latency
system.l2.ReadCleanReq_avg_mshr_miss_latency::total 77872.507123                       # average ReadCleanReq mshr miss latency
system.l2.ReadSharedReq_avg_mshr_miss_latency::cpu.data 91255.141081                       # average ReadSharedReq mshr miss latency
system.l2.ReadSharedReq_avg_mshr_miss_latency::total 91255.141081                       # average ReadSharedReq mshr miss latency
system.l2.demand_avg_mshr_miss_latency::cpu.inst 77872.507123                       # average overall mshr miss latency
system.l2.demand_avg_mshr_miss_latency::cpu.data 91148.367781                       # average overall mshr miss latency
system.l2.demand_avg_mshr_miss_latency::total 91146.901060                       # average overall mshr miss latency
system.l2.overall_avg_mshr_miss_latency::cpu.inst 77872.507123                       # average overall mshr miss latency
system.l2.overall_avg_mshr_miss_latency::cpu.data 91148.367781                       # average overall mshr miss latency
system.l2.overall_avg_mshr_miss_latency::total 91146.901060                       # average overall mshr miss latency
system.membus.snoop_filter.tot_requests      12691504                       # Total number of requests made to the snoop filter.
system.membus.snoop_filter.hit_single_requests      6337428                       # Number of requests hitting in the snoop filter with a single holder of the requested data.
system.membus.snoop_filter.hit_multi_requests            0                       # Number of requests hitting in the snoop filter with multiple (>1) holders of the requested data.
system.membus.snoop_filter.tot_snoops               0                       # Total number of snoops made to the snoop filter.
system.membus.snoop_filter.hit_single_snoops            0                       # Number of snoops hitting in the snoop filter with a single holder of the requested data.
system.membus.snoop_filter.hit_multi_snoops            0                       # Number of snoops hitting in the snoop filter with multiple (>1) holders of the requested data.
system.membus.pwrStateResidencyTicks::UNDEFINED 1711588216500                       # Cumulative time (in ticks) in various power states
system.membus.trans_dist::ReadResp            6145275                       # Transaction distribution
system.membus.trans_dist::WritebackDirty      1107323                       # Transaction distribution
system.membus.trans_dist::CleanEvict          5230105                       # Transaction distribution
system.membus.trans_dist::ReadExReq            208801                       # Transaction distribution
system.membus.trans_dist::ReadExResp           208801                       # Transaction distribution
system.membus.trans_dist::ReadSharedReq       6145275                       # Transaction distribution
system.membus.pkt_count_system.l2.mem_side::system.mem_ctrls.port     19045580                       # Packet count per connected master and slave (bytes)
system.membus.pkt_count_system.l2.mem_side::total     19045580                       # Packet count per connected master and slave (bytes)
system.membus.pkt_count::total               19045580                       # Packet count per connected master and slave (bytes)
system.membus.pkt_size_system.l2.mem_side::system.mem_ctrls.port    477529536                       # Cumulative packet size per connected master and slave (bytes)
system.membus.pkt_size_system.l2.mem_side::total    477529536                       # Cumulative packet size per connected master and slave (bytes)
system.membus.pkt_size::total               477529536                       # Cumulative packet size per connected master and slave (bytes)
system.membus.snoops                                0                       # Total snoops (count)
system.membus.snoopTraffic                          0                       # Total snoop traffic (bytes)
system.membus.snoop_fanout::samples           6354076                       # Request fanout histogram
system.membus.snoop_fanout::mean                    0                       # Request fanout histogram
system.membus.snoop_fanout::stdev                   0                       # Request fanout histogram
system.membus.snoop_fanout::underflows              0      0.00%      0.00% # Request fanout histogram
system.membus.snoop_fanout::0                 6354076    100.00%    100.00% # Request fanout histogram
system.membus.snoop_fanout::1                       0      0.00%    100.00% # Request fanout histogram
system.membus.snoop_fanout::overflows               0      0.00%    100.00% # Request fanout histogram
system.membus.snoop_fanout::min_value               0                       # Request fanout histogram
system.membus.snoop_fanout::max_value               0                       # Request fanout histogram
system.membus.snoop_fanout::total             6354076                       # Request fanout histogram
system.membus.reqLayer2.occupancy         17130859000                       # Layer occupancy (ticks)
system.membus.reqLayer2.utilization               1.0                       # Layer utilization (%)
system.membus.respLayer1.occupancy        35418122750                       # Layer occupancy (ticks)
system.membus.respLayer1.utilization              2.1                       # Layer utilization (%)
system.tol2bus.snoop_filter.tot_requests     27418604                       # Total number of requests made to the snoop filter.
system.tol2bus.snoop_filter.hit_single_requests     13708662                       # Number of requests hitting in the snoop filter with a single holder of the requested data.
system.tol2bus.snoop_filter.hit_multi_requests            1                       # Number of requests hitting in the snoop filter with multiple (>1) holders of the requested data.
system.tol2bus.snoop_filter.tot_snoops          60003                       # Total number of snoops made to the snoop filter.
system.tol2bus.snoop_filter.hit_single_snoops        60003                       # Number of snoops hitting in the snoop filter with a single holder of the requested data.
system.tol2bus.snoop_filter.hit_multi_snoops            0                       # Number of snoops hitting in the snoop filter with multiple (>1) holders of the requested data.
system.tol2bus.pwrStateResidencyTicks::UNDEFINED 1711588216500                       # Cumulative time (in ticks) in various power states
system.tol2bus.trans_dist::ReadResp          13196359                       # Transaction distribution
system.tol2bus.trans_dist::WritebackDirty      4831240                       # Transaction distribution
system.tol2bus.trans_dist::WritebackClean       901102                       # Transaction distribution
system.tol2bus.trans_dist::CleanEvict        14333276                       # Transaction distribution
system.tol2bus.trans_dist::ReadExReq           513583                       # Transaction distribution
system.tol2bus.trans_dist::ReadExResp          513583                       # Transaction distribution
system.tol2bus.trans_dist::ReadCleanReq        901358                       # Transaction distribution
system.tol2bus.trans_dist::ReadSharedReq     12295001                       # Transaction distribution
system.tol2bus.pkt_count_system.cpu.icache.mem_side::system.l2.cpu_side      2703818                       # Packet count per connected master and slave (bytes)
system.tol2bus.pkt_count_system.cpu.dcache.mem_side::system.l2.cpu_side     38424728                       # Packet count per connected master and slave (bytes)
system.tol2bus.pkt_count::total              41128546                       # Packet count per connected master and slave (bytes)
system.tol2bus.pkt_size_system.cpu.icache.mem_side::system.l2.cpu_side    115357440                       # Cumulative packet size per connected master and slave (bytes)
system.tol2bus.pkt_size_system.cpu.dcache.mem_side::system.l2.cpu_side   1058080064                       # Cumulative packet size per connected master and slave (bytes)
system.tol2bus.pkt_size::total             1173437504                       # Cumulative packet size per connected master and slave (bytes)
system.tol2bus.snoops                         6356956                       # Total snoops (count)
system.tol2bus.snoopTraffic                  70868672                       # Total snoop traffic (bytes)
system.tol2bus.snoop_fanout::samples         20066898                       # Request fanout histogram
system.tol2bus.snoop_fanout::mean            0.002990                       # Request fanout histogram
system.tol2bus.snoop_fanout::stdev           0.054601                       # Request fanout histogram
system.tol2bus.snoop_fanout::underflows             0      0.00%      0.00% # Request fanout histogram
system.tol2bus.snoop_fanout::0               20006894     99.70%     99.70% # Request fanout histogram
system.tol2bus.snoop_fanout::1                  60004      0.30%    100.00% # Request fanout histogram
system.tol2bus.snoop_fanout::2                      0      0.00%    100.00% # Request fanout histogram
system.tol2bus.snoop_fanout::3                      0      0.00%    100.00% # Request fanout histogram
system.tol2bus.snoop_fanout::4                      0      0.00%    100.00% # Request fanout histogram
system.tol2bus.snoop_fanout::overflows              0      0.00%    100.00% # Request fanout histogram
system.tol2bus.snoop_fanout::min_value              0                       # Request fanout histogram
system.tol2bus.snoop_fanout::max_value              1                       # Request fanout histogram
system.tol2bus.snoop_fanout::total           20066898                       # Request fanout histogram
system.tol2bus.reqLayer0.occupancy        18334321000                       # Layer occupancy (ticks)
system.tol2bus.reqLayer0.utilization              1.1                       # Layer utilization (%)
system.tol2bus.respLayer0.occupancy        1352037000                       # Layer occupancy (ticks)
system.tol2bus.respLayer0.utilization             0.1                       # Layer utilization (%)
system.tol2bus.respLayer1.occupancy       19212876000                       # Layer occupancy (ticks)
system.tol2bus.respLayer1.utilization             1.1                       # Layer utilization (%)

---------- End Simulation Statistics   ----------
