
---------- Begin Simulation Statistics ----------
sim_seconds                                  0.952862                       # Number of seconds simulated
sim_ticks                                952862491500                       # Number of ticks simulated
final_tick                               952862491500                       # Number of ticks from beginning of simulation (restored from checkpoints and never reset)
sim_freq                                 1000000000000                       # Frequency of simulated ticks
host_inst_rate                                 615721                       # Simulator instruction rate (inst/s)
host_op_rate                                   794010                       # Simulator op (including micro ops) rate (op/s)
host_tick_rate                             1173395124                       # Simulator tick rate (ticks/s)
host_mem_usage                                 666352                       # Number of bytes of host memory used
host_seconds                                   812.06                       # Real time elapsed on the host
sim_insts                                   500000000                       # Number of instructions simulated
sim_ops                                     644780824                       # Number of ops (including micro ops) simulated
system.voltage_domain.voltage                       1                       # Voltage in Volts
system.clk_domain.clock                          1000                       # Clock period in ticks
system.mem_ctrls.pwrStateResidencyTicks::UNDEFINED 952862491500                       # Cumulative time (in ticks) in various power states
system.mem_ctrls.bytes_read::cpu.inst          100608                       # Number of bytes read from this memory
system.mem_ctrls.bytes_read::cpu.data          313088                       # Number of bytes read from this memory
system.mem_ctrls.bytes_read::total             413696                       # Number of bytes read from this memory
system.mem_ctrls.bytes_inst_read::cpu.inst       100608                       # Number of instructions bytes read from this memory
system.mem_ctrls.bytes_inst_read::total        100608                       # Number of instructions bytes read from this memory
system.mem_ctrls.bytes_written::writebacks        12480                       # Number of bytes written to this memory
system.mem_ctrls.bytes_written::total           12480                       # Number of bytes written to this memory
system.mem_ctrls.num_reads::cpu.inst             1572                       # Number of read requests responded to by this memory
system.mem_ctrls.num_reads::cpu.data             4892                       # Number of read requests responded to by this memory
system.mem_ctrls.num_reads::total                6464                       # Number of read requests responded to by this memory
system.mem_ctrls.num_writes::writebacks           195                       # Number of write requests responded to by this memory
system.mem_ctrls.num_writes::total                195                       # Number of write requests responded to by this memory
system.mem_ctrls.bw_read::cpu.inst             105585                       # Total read bandwidth from this memory (bytes/s)
system.mem_ctrls.bw_read::cpu.data             328576                       # Total read bandwidth from this memory (bytes/s)
system.mem_ctrls.bw_read::total                434161                       # Total read bandwidth from this memory (bytes/s)
system.mem_ctrls.bw_inst_read::cpu.inst        105585                       # Instruction read bandwidth from this memory (bytes/s)
system.mem_ctrls.bw_inst_read::total           105585                       # Instruction read bandwidth from this memory (bytes/s)
system.mem_ctrls.bw_write::writebacks           13097                       # Write bandwidth from this memory (bytes/s)
system.mem_ctrls.bw_write::total                13097                       # Write bandwidth from this memory (bytes/s)
system.mem_ctrls.bw_total::writebacks           13097                       # Total bandwidth to/from this memory (bytes/s)
system.mem_ctrls.bw_total::cpu.inst            105585                       # Total bandwidth to/from this memory (bytes/s)
system.mem_ctrls.bw_total::cpu.data            328576                       # Total bandwidth to/from this memory (bytes/s)
system.mem_ctrls.bw_total::total               447259                       # Total bandwidth to/from this memory (bytes/s)
system.mem_ctrls.readReqs                        6464                       # Number of read requests accepted
system.mem_ctrls.writeReqs                        195                       # Number of write requests accepted
system.mem_ctrls.readBursts                      6464                       # Number of DRAM read bursts, including those serviced by the write queue
system.mem_ctrls.writeBursts                      195                       # Number of DRAM write bursts, including those merged in the write queue
system.mem_ctrls.bytesReadDRAM                 401536                       # Total number of bytes read from DRAM
system.mem_ctrls.bytesReadWrQ                   12160                       # Total number of bytes read from write queue
system.mem_ctrls.bytesWritten                       0                       # Total number of bytes written to DRAM
system.mem_ctrls.bytesReadSys                  413696                       # Total read bytes from the system interface side
system.mem_ctrls.bytesWrittenSys                12480                       # Total written bytes from the system interface side
system.mem_ctrls.servicedByWrQ                    190                       # Number of DRAM read bursts serviced by the write queue
system.mem_ctrls.mergedWrBursts                   188                       # Number of DRAM write bursts merged with an existing one
system.mem_ctrls.neitherReadNorWriteReqs            0                       # Number of requests that are neither read nor write
system.mem_ctrls.perBankRdBursts::0               315                       # Per bank write bursts
system.mem_ctrls.perBankRdBursts::1               346                       # Per bank write bursts
system.mem_ctrls.perBankRdBursts::2               421                       # Per bank write bursts
system.mem_ctrls.perBankRdBursts::3               318                       # Per bank write bursts
system.mem_ctrls.perBankRdBursts::4               665                       # Per bank write bursts
system.mem_ctrls.perBankRdBursts::5               405                       # Per bank write bursts
system.mem_ctrls.perBankRdBursts::6               341                       # Per bank write bursts
system.mem_ctrls.perBankRdBursts::7               417                       # Per bank write bursts
system.mem_ctrls.perBankRdBursts::8               410                       # Per bank write bursts
system.mem_ctrls.perBankRdBursts::9               392                       # Per bank write bursts
system.mem_ctrls.perBankRdBursts::10              445                       # Per bank write bursts
system.mem_ctrls.perBankRdBursts::11              474                       # Per bank write bursts
system.mem_ctrls.perBankRdBursts::12              371                       # Per bank write bursts
system.mem_ctrls.perBankRdBursts::13              320                       # Per bank write bursts
system.mem_ctrls.perBankRdBursts::14              309                       # Per bank write bursts
system.mem_ctrls.perBankRdBursts::15              325                       # Per bank write bursts
system.mem_ctrls.perBankWrBursts::0                 0                       # Per bank write bursts
system.mem_ctrls.perBankWrBursts::1                 0                       # Per bank write bursts
system.mem_ctrls.perBankWrBursts::2                 0                       # Per bank write bursts
system.mem_ctrls.perBankWrBursts::3                 0                       # Per bank write bursts
system.mem_ctrls.perBankWrBursts::4                 0                       # Per bank write bursts
system.mem_ctrls.perBankWrBursts::5                 0                       # Per bank write bursts
system.mem_ctrls.perBankWrBursts::6                 0                       # Per bank write bursts
system.mem_ctrls.perBankWrBursts::7                 0                       # Per bank write bursts
system.mem_ctrls.perBankWrBursts::8                 0                       # Per bank write bursts
system.mem_ctrls.perBankWrBursts::9                 0                       # Per bank write bursts
system.mem_ctrls.perBankWrBursts::10                0                       # Per bank write bursts
system.mem_ctrls.perBankWrBursts::11                0                       # Per bank write bursts
system.mem_ctrls.perBankWrBursts::12                0                       # Per bank write bursts
system.mem_ctrls.perBankWrBursts::13                0                       # Per bank write bursts
system.mem_ctrls.perBankWrBursts::14                0                       # Per bank write bursts
system.mem_ctrls.perBankWrBursts::15                0                       # Per bank write bursts
system.mem_ctrls.numRdRetry                         0                       # Number of times read queue was full causing retry
system.mem_ctrls.numWrRetry                         0                       # Number of times write queue was full causing retry
system.mem_ctrls.totGap                  950031675500                       # Total gap between requests
system.mem_ctrls.readPktSize::0                     0                       # Read request sizes (log2)
system.mem_ctrls.readPktSize::1                     0                       # Read request sizes (log2)
system.mem_ctrls.readPktSize::2                     0                       # Read request sizes (log2)
system.mem_ctrls.readPktSize::3                     0                       # Read request sizes (log2)
system.mem_ctrls.readPktSize::4                     0                       # Read request sizes (log2)
system.mem_ctrls.readPktSize::5                     0                       # Read request sizes (log2)
system.mem_ctrls.readPktSize::6                  6464                       # Read request sizes (log2)
system.mem_ctrls.writePktSize::0                    0                       # Write request sizes (log2)
system.mem_ctrls.writePktSize::1                    0                       # Write request sizes (log2)
system.mem_ctrls.writePktSize::2                    0                       # Write request sizes (log2)
system.mem_ctrls.writePktSize::3                    0                       # Write request sizes (log2)
system.mem_ctrls.writePktSize::4                    0                       # Write request sizes (log2)
system.mem_ctrls.writePktSize::5                    0                       # Write request sizes (log2)
system.mem_ctrls.writePktSize::6                  195                       # Write request sizes (log2)
system.mem_ctrls.rdQLenPdf::0                    6012                       # What read queue length does an incoming req see
system.mem_ctrls.rdQLenPdf::1                     239                       # What read queue length does an incoming req see
system.mem_ctrls.rdQLenPdf::2                      18                       # What read queue length does an incoming req see
system.mem_ctrls.rdQLenPdf::3                       5                       # What read queue length does an incoming req see
system.mem_ctrls.rdQLenPdf::4                       0                       # What read queue length does an incoming req see
system.mem_ctrls.rdQLenPdf::5                       0                       # What read queue length does an incoming req see
system.mem_ctrls.rdQLenPdf::6                       0                       # What read queue length does an incoming req see
system.mem_ctrls.rdQLenPdf::7                       0                       # What read queue length does an incoming req see
system.mem_ctrls.rdQLenPdf::8                       0                       # What read queue length does an incoming req see
system.mem_ctrls.rdQLenPdf::9                       0                       # What read queue length does an incoming req see
system.mem_ctrls.rdQLenPdf::10                      0                       # What read queue length does an incoming req see
system.mem_ctrls.rdQLenPdf::11                      0                       # What read queue length does an incoming req see
system.mem_ctrls.rdQLenPdf::12                      0                       # What read queue length does an incoming req see
system.mem_ctrls.rdQLenPdf::13                      0                       # What read queue length does an incoming req see
system.mem_ctrls.rdQLenPdf::14                      0                       # What read queue length does an incoming req see
system.mem_ctrls.rdQLenPdf::15                      0                       # What read queue length does an incoming req see
system.mem_ctrls.rdQLenPdf::16                      0                       # What read queue length does an incoming req see
system.mem_ctrls.rdQLenPdf::17                      0                       # What read queue length does an incoming req see
system.mem_ctrls.rdQLenPdf::18                      0                       # What read queue length does an incoming req see
system.mem_ctrls.rdQLenPdf::19                      0                       # What read queue length does an incoming req see
system.mem_ctrls.rdQLenPdf::20                      0                       # What read queue length does an incoming req see
system.mem_ctrls.rdQLenPdf::21                      0                       # What read queue length does an incoming req see
system.mem_ctrls.rdQLenPdf::22                      0                       # What read queue length does an incoming req see
system.mem_ctrls.rdQLenPdf::23                      0                       # What read queue length does an incoming req see
system.mem_ctrls.rdQLenPdf::24                      0                       # What read queue length does an incoming req see
system.mem_ctrls.rdQLenPdf::25                      0                       # What read queue length does an incoming req see
system.mem_ctrls.rdQLenPdf::26                      0                       # What read queue length does an incoming req see
system.mem_ctrls.rdQLenPdf::27                      0                       # What read queue length does an incoming req see
system.mem_ctrls.rdQLenPdf::28                      0                       # What read queue length does an incoming req see
system.mem_ctrls.rdQLenPdf::29                      0                       # What read queue length does an incoming req see
system.mem_ctrls.rdQLenPdf::30                      0                       # What read queue length does an incoming req see
system.mem_ctrls.rdQLenPdf::31                      0                       # What read queue length does an incoming req see
system.mem_ctrls.wrQLenPdf::0                       1                       # What write queue length does an incoming req see
system.mem_ctrls.wrQLenPdf::1                       1                       # What write queue length does an incoming req see
system.mem_ctrls.wrQLenPdf::2                       1                       # What write queue length does an incoming req see
system.mem_ctrls.wrQLenPdf::3                       1                       # What write queue length does an incoming req see
system.mem_ctrls.wrQLenPdf::4                       1                       # What write queue length does an incoming req see
system.mem_ctrls.wrQLenPdf::5                       1                       # What write queue length does an incoming req see
system.mem_ctrls.wrQLenPdf::6                       1                       # What write queue length does an incoming req see
system.mem_ctrls.wrQLenPdf::7                       0                       # What write queue length does an incoming req see
system.mem_ctrls.wrQLenPdf::8                       0                       # What write queue length does an incoming req see
system.mem_ctrls.wrQLenPdf::9                       0                       # What write queue length does an incoming req see
system.mem_ctrls.wrQLenPdf::10                      0                       # What write queue length does an incoming req see
system.mem_ctrls.wrQLenPdf::11                      0                       # What write queue length does an incoming req see
system.mem_ctrls.wrQLenPdf::12                      0                       # What write queue length does an incoming req see
system.mem_ctrls.wrQLenPdf::13                      0                       # What write queue length does an incoming req see
system.mem_ctrls.wrQLenPdf::14                      0                       # What write queue length does an incoming req see
system.mem_ctrls.wrQLenPdf::15                      0                       # What write queue length does an incoming req see
system.mem_ctrls.wrQLenPdf::16                      0                       # What write queue length does an incoming req see
system.mem_ctrls.wrQLenPdf::17                      0                       # What write queue length does an incoming req see
system.mem_ctrls.wrQLenPdf::18                      0                       # What write queue length does an incoming req see
system.mem_ctrls.wrQLenPdf::19                      0                       # What write queue length does an incoming req see
system.mem_ctrls.wrQLenPdf::20                      0                       # What write queue length does an incoming req see
system.mem_ctrls.wrQLenPdf::21                      0                       # What write queue length does an incoming req see
system.mem_ctrls.wrQLenPdf::22                      0                       # What write queue length does an incoming req see
system.mem_ctrls.wrQLenPdf::23                      0                       # What write queue length does an incoming req see
system.mem_ctrls.wrQLenPdf::24                      0                       # What write queue length does an incoming req see
system.mem_ctrls.wrQLenPdf::25                      0                       # What write queue length does an incoming req see
system.mem_ctrls.wrQLenPdf::26                      0                       # What write queue length does an incoming req see
system.mem_ctrls.wrQLenPdf::27                      0                       # What write queue length does an incoming req see
system.mem_ctrls.wrQLenPdf::28                      0                       # What write queue length does an incoming req see
system.mem_ctrls.wrQLenPdf::29                      0                       # What write queue length does an incoming req see
system.mem_ctrls.wrQLenPdf::30                      0                       # What write queue length does an incoming req see
system.mem_ctrls.wrQLenPdf::31                      0                       # What write queue length does an incoming req see
system.mem_ctrls.wrQLenPdf::32                      0                       # What write queue length does an incoming req see
system.mem_ctrls.wrQLenPdf::33                      0                       # What write queue length does an incoming req see
system.mem_ctrls.wrQLenPdf::34                      0                       # What write queue length does an incoming req see
system.mem_ctrls.wrQLenPdf::35                      0                       # What write queue length does an incoming req see
system.mem_ctrls.wrQLenPdf::36                      0                       # What write queue length does an incoming req see
system.mem_ctrls.wrQLenPdf::37                      0                       # What write queue length does an incoming req see
system.mem_ctrls.wrQLenPdf::38                      0                       # What write queue length does an incoming req see
system.mem_ctrls.wrQLenPdf::39                      0                       # What write queue length does an incoming req see
system.mem_ctrls.wrQLenPdf::40                      0                       # What write queue length does an incoming req see
system.mem_ctrls.wrQLenPdf::41                      0                       # What write queue length does an incoming req see
system.mem_ctrls.wrQLenPdf::42                      0                       # What write queue length does an incoming req see
system.mem_ctrls.wrQLenPdf::43                      0                       # What write queue length does an incoming req see
system.mem_ctrls.wrQLenPdf::44                      0                       # What write queue length does an incoming req see
system.mem_ctrls.wrQLenPdf::45                      0                       # What write queue length does an incoming req see
system.mem_ctrls.wrQLenPdf::46                      0                       # What write queue length does an incoming req see
system.mem_ctrls.wrQLenPdf::47                      0                       # What write queue length does an incoming req see
system.mem_ctrls.wrQLenPdf::48                      0                       # What write queue length does an incoming req see
system.mem_ctrls.wrQLenPdf::49                      0                       # What write queue length does an incoming req see
system.mem_ctrls.wrQLenPdf::50                      0                       # What write queue length does an incoming req see
system.mem_ctrls.wrQLenPdf::51                      0                       # What write queue length does an incoming req see
system.mem_ctrls.wrQLenPdf::52                      0                       # What write queue length does an incoming req see
system.mem_ctrls.wrQLenPdf::53                      0                       # What write queue length does an incoming req see
system.mem_ctrls.wrQLenPdf::54                      0                       # What write queue length does an incoming req see
system.mem_ctrls.wrQLenPdf::55                      0                       # What write queue length does an incoming req see
system.mem_ctrls.wrQLenPdf::56                      0                       # What write queue length does an incoming req see
system.mem_ctrls.wrQLenPdf::57                      0                       # What write queue length does an incoming req see
system.mem_ctrls.wrQLenPdf::58                      0                       # What write queue length does an incoming req see
system.mem_ctrls.wrQLenPdf::59                      0                       # What write queue length does an incoming req see
system.mem_ctrls.wrQLenPdf::60                      0                       # What write queue length does an incoming req see
system.mem_ctrls.wrQLenPdf::61                      0                       # What write queue length does an incoming req see
system.mem_ctrls.wrQLenPdf::62                      0                       # What write queue length does an incoming req see
system.mem_ctrls.wrQLenPdf::63                      0                       # What write queue length does an incoming req see
system.mem_ctrls.bytesPerActivate::samples         2648                       # Bytes accessed per row activation
system.mem_ctrls.bytesPerActivate::mean    151.637462                       # Bytes accessed per row activation
system.mem_ctrls.bytesPerActivate::gmean    93.145188                       # Bytes accessed per row activation
system.mem_ctrls.bytesPerActivate::stdev   230.002293                       # Bytes accessed per row activation
system.mem_ctrls.bytesPerActivate::0-127         2039     77.00%     77.00% # Bytes accessed per row activation
system.mem_ctrls.bytesPerActivate::128-255          248      9.37%     86.37% # Bytes accessed per row activation
system.mem_ctrls.bytesPerActivate::256-383           95      3.59%     89.95% # Bytes accessed per row activation
system.mem_ctrls.bytesPerActivate::384-511           63      2.38%     92.33% # Bytes accessed per row activation
system.mem_ctrls.bytesPerActivate::512-639           31      1.17%     93.50% # Bytes accessed per row activation
system.mem_ctrls.bytesPerActivate::640-767           20      0.76%     94.26% # Bytes accessed per row activation
system.mem_ctrls.bytesPerActivate::768-895           17      0.64%     94.90% # Bytes accessed per row activation
system.mem_ctrls.bytesPerActivate::896-1023           14      0.53%     95.43% # Bytes accessed per row activation
system.mem_ctrls.bytesPerActivate::1024-1151          121      4.57%    100.00% # Bytes accessed per row activation
system.mem_ctrls.bytesPerActivate::total         2648                       # Bytes accessed per row activation
system.mem_ctrls.totQLat                    258306750                       # Total ticks spent queuing
system.mem_ctrls.totMemAccLat               375944250                       # Total ticks spent from burst creation until serviced by the DRAM
system.mem_ctrls.totBusLat                   31370000                       # Total ticks spent in databus transfers
system.mem_ctrls.avgQLat                     41170.98                       # Average queueing delay per DRAM burst
system.mem_ctrls.avgBusLat                    5000.00                       # Average bus latency per DRAM burst
system.mem_ctrls.avgMemAccLat                59920.98                       # Average memory access latency per DRAM burst
system.mem_ctrls.avgRdBW                         0.42                       # Average DRAM read bandwidth in MiByte/s
system.mem_ctrls.avgWrBW                         0.00                       # Average achieved write bandwidth in MiByte/s
system.mem_ctrls.avgRdBWSys                      0.43                       # Average system read bandwidth in MiByte/s
system.mem_ctrls.avgWrBWSys                      0.01                       # Average system write bandwidth in MiByte/s
system.mem_ctrls.peakBW                      12800.00                       # Theoretical peak bandwidth in MiByte/s
system.mem_ctrls.busUtil                         0.00                       # Data bus utilization in percentage
system.mem_ctrls.busUtilRead                     0.00                       # Data bus utilization in percentage for reads
system.mem_ctrls.busUtilWrite                    0.00                       # Data bus utilization in percentage for writes
system.mem_ctrls.avgRdQLen                       1.00                       # Average read queue length when enqueuing
system.mem_ctrls.avgWrQLen                       6.92                       # Average write queue length when enqueuing
system.mem_ctrls.readRowHits                     3626                       # Number of row buffer hits during reads
system.mem_ctrls.writeRowHits                       0                       # Number of row buffer hits during writes
system.mem_ctrls.readRowHitRate                 57.79                       # Row buffer hit rate for reads
system.mem_ctrls.writeRowHitRate                 0.00                       # Row buffer hit rate for writes
system.mem_ctrls.avgGap                  142668820.47                       # Average gap between requests
system.mem_ctrls.pageHitRate                    57.73                       # Row buffer hit rate, read and write combined
system.mem_ctrls_0.actEnergy                  9560460                       # Energy for activate commands per rank (pJ)
system.mem_ctrls_0.preEnergy                  5081505                       # Energy for precharge commands per rank (pJ)
system.mem_ctrls_0.readEnergy                23047920                       # Energy for read commands per rank (pJ)
system.mem_ctrls_0.writeEnergy                      0                       # Energy for write commands per rank (pJ)
system.mem_ctrls_0.refreshEnergy         752934000.000000                       # Energy for refresh commands per rank (pJ)
system.mem_ctrls_0.actBackEnergy            181551270                       # Energy for active background per rank (pJ)
system.mem_ctrls_0.preBackEnergy             36200640                       # Energy for precharge background per rank (pJ)
system.mem_ctrls_0.actPowerDownEnergy      2282482350                       # Energy for active power-down per rank (pJ)
system.mem_ctrls_0.prePowerDownEnergy       919562400                       # Energy for precharge power-down per rank (pJ)
system.mem_ctrls_0.selfRefreshEnergy     226918174185                       # Energy for self refresh per rank (pJ)
system.mem_ctrls_0.totalEnergy           231128619390                       # Total energy per rank (pJ)
system.mem_ctrls_0.averagePower            242.562407                       # Core power per rank (mW)
system.mem_ctrls_0.totalIdleTime         949553379250                       # Total Idle time Per DRAM Rank
system.mem_ctrls_0.memoryStateTime::IDLE     64733500                       # Time in different power states
system.mem_ctrls_0.memoryStateTime::REF     319886000                       # Time in different power states
system.mem_ctrls_0.memoryStateTime::SREF 944969876000                       # Time in different power states
system.mem_ctrls_0.memoryStateTime::PRE_PDN   2394568000                       # Time in different power states
system.mem_ctrls_0.memoryStateTime::ACT     108071750                       # Time in different power states
system.mem_ctrls_0.memoryStateTime::ACT_PDN   5005356250                       # Time in different power states
system.mem_ctrls_1.actEnergy                  9346260                       # Energy for activate commands per rank (pJ)
system.mem_ctrls_1.preEnergy                  4967655                       # Energy for precharge commands per rank (pJ)
system.mem_ctrls_1.readEnergy                21748440                       # Energy for read commands per rank (pJ)
system.mem_ctrls_1.writeEnergy                      0                       # Energy for write commands per rank (pJ)
system.mem_ctrls_1.refreshEnergy         373701120.000000                       # Energy for refresh commands per rank (pJ)
system.mem_ctrls_1.actBackEnergy            111892710                       # Energy for active background per rank (pJ)
system.mem_ctrls_1.preBackEnergy             11071200                       # Energy for precharge background per rank (pJ)
system.mem_ctrls_1.actPowerDownEnergy      1689790650                       # Energy for active power-down per rank (pJ)
system.mem_ctrls_1.prePowerDownEnergy       200543520                       # Energy for precharge power-down per rank (pJ)
system.mem_ctrls_1.selfRefreshEnergy     227624185485                       # Energy for self refresh per rank (pJ)
system.mem_ctrls_1.totalEnergy           230047319010                       # Total energy per rank (pJ)
system.mem_ctrls_1.averagePower            241.427615                       # Core power per rank (mW)
system.mem_ctrls_1.totalIdleTime          15941569750                       # Total Idle time Per DRAM Rank
system.mem_ctrls_1.memoryStateTime::IDLE     12541000                       # Time in different power states
system.mem_ctrls_1.memoryStateTime::REF     158284000                       # Time in different power states
system.mem_ctrls_1.memoryStateTime::SREF 948360193500                       # Time in different power states
system.mem_ctrls_1.memoryStateTime::PRE_PDN    522357250                       # Time in different power states
system.mem_ctrls_1.memoryStateTime::ACT     103427750                       # Time in different power states
system.mem_ctrls_1.memoryStateTime::ACT_PDN   3705688000                       # Time in different power states
system.pwrStateResidencyTicks::UNDEFINED 952862491500                       # Cumulative time (in ticks) in various power states
system.cpu_voltage_domain.voltage                   1                       # Voltage in Volts
system.cpu_clk_domain.clock                       500                       # Clock period in ticks
system.cpu.dtb.walker.pwrStateResidencyTicks::UNDEFINED 952862491500                       # Cumulative time (in ticks) in various power states
system.cpu.apic_clk_domain.clock                 8000                       # Clock period in ticks
system.cpu.interrupts.pwrStateResidencyTicks::UNDEFINED 952862491500                       # Cumulative time (in ticks) in various power states
system.cpu.itb.walker.pwrStateResidencyTicks::UNDEFINED 952862491500                       # Cumulative time (in ticks) in various power states
system.cpu.workload.num_syscalls                   34                       # Number of system calls
system.cpu.pwrStateResidencyTicks::ON    952862491500                       # Cumulative time (in ticks) in various power states
system.cpu.numCycles                       1905724983                       # number of cpu cycles simulated
system.cpu.numWorkItemsStarted                      0                       # number of work items this cpu started
system.cpu.numWorkItemsCompleted                    0                       # number of work items this cpu completed
system.cpu.committedInsts                   500000000                       # Number of instructions committed
system.cpu.committedOps                     644780824                       # Number of ops (including micro ops) committed
system.cpu.num_int_alu_accesses             625781845                       # Number of integer alu accesses
system.cpu.num_fp_alu_accesses               27680885                       # Number of float alu accesses
system.cpu.num_func_calls                     1532449                       # number of times a function call or return occured
system.cpu.num_conditional_control_insts     25288260                       # number of instructions that are conditional controls
system.cpu.num_int_insts                    625781845                       # number of integer instructions
system.cpu.num_fp_insts                      27680885                       # number of float instructions
system.cpu.num_int_register_reads          1467255983                       # number of times the integer registers were read
system.cpu.num_int_register_writes          569426959                       # number of times the integer registers were written
system.cpu.num_fp_register_reads             21886167                       # number of times the floating registers were read
system.cpu.num_fp_register_writes            23676651                       # number of times the floating registers were written
system.cpu.num_cc_register_reads            187287140                       # number of times the CC registers were read
system.cpu.num_cc_register_writes           260710310                       # number of times the CC registers were written
system.cpu.num_mem_refs                     254811579                       # number of memory refs
system.cpu.num_load_insts                   219158147                       # Number of load instructions
system.cpu.num_store_insts                   35653432                       # Number of store instructions
system.cpu.num_idle_cycles                          0                       # Number of idle cycles
system.cpu.num_busy_cycles                 1905724983                       # Number of busy cycles
system.cpu.not_idle_fraction                        1                       # Percentage of non-idle cycles
system.cpu.idle_fraction                            0                       # Percentage of idle cycles
system.cpu.Branches                          27593151                       # Number of branches fetched
system.cpu.op_class::No_OpClass               1477149      0.23%      0.23% # Class of executed instruction
system.cpu.op_class::IntAlu                 363712896     56.41%     56.64% # Class of executed instruction
system.cpu.op_class::IntMult                   612864      0.10%     56.73% # Class of executed instruction
system.cpu.op_class::IntDiv                   6327906      0.98%     57.71% # Class of executed instruction
system.cpu.op_class::FloatAdd                17838430      2.77%     60.48% # Class of executed instruction
system.cpu.op_class::FloatCmp                       0      0.00%     60.48% # Class of executed instruction
system.cpu.op_class::FloatCvt                       0      0.00%     60.48% # Class of executed instruction
system.cpu.op_class::FloatMult                      0      0.00%     60.48% # Class of executed instruction
system.cpu.op_class::FloatDiv                       0      0.00%     60.48% # Class of executed instruction
system.cpu.op_class::FloatSqrt                      0      0.00%     60.48% # Class of executed instruction
system.cpu.op_class::SimdAdd                        0      0.00%     60.48% # Class of executed instruction
system.cpu.op_class::SimdAddAcc                     0      0.00%     60.48% # Class of executed instruction
system.cpu.op_class::SimdAlu                        0      0.00%     60.48% # Class of executed instruction
system.cpu.op_class::SimdCmp                        0      0.00%     60.48% # Class of executed instruction
system.cpu.op_class::SimdCvt                        0      0.00%     60.48% # Class of executed instruction
system.cpu.op_class::SimdMisc                       0      0.00%     60.48% # Class of executed instruction
system.cpu.op_class::SimdMult                       0      0.00%     60.48% # Class of executed instruction
system.cpu.op_class::SimdMultAcc                    0      0.00%     60.48% # Class of executed instruction
system.cpu.op_class::SimdShift                      0      0.00%     60.48% # Class of executed instruction
system.cpu.op_class::SimdShiftAcc                   0      0.00%     60.48% # Class of executed instruction
system.cpu.op_class::SimdSqrt                       0      0.00%     60.48% # Class of executed instruction
system.cpu.op_class::SimdFloatAdd                   0      0.00%     60.48% # Class of executed instruction
system.cpu.op_class::SimdFloatAlu                   0      0.00%     60.48% # Class of executed instruction
system.cpu.op_class::SimdFloatCmp                   0      0.00%     60.48% # Class of executed instruction
system.cpu.op_class::SimdFloatCvt                   0      0.00%     60.48% # Class of executed instruction
system.cpu.op_class::SimdFloatDiv                   0      0.00%     60.48% # Class of executed instruction
system.cpu.op_class::SimdFloatMisc                  0      0.00%     60.48% # Class of executed instruction
system.cpu.op_class::SimdFloatMult                  0      0.00%     60.48% # Class of executed instruction
system.cpu.op_class::SimdFloatMultAcc               0      0.00%     60.48% # Class of executed instruction
system.cpu.op_class::SimdFloatSqrt                  0      0.00%     60.48% # Class of executed instruction
system.cpu.op_class::MemRead                219158147     33.99%     94.47% # Class of executed instruction
system.cpu.op_class::MemWrite                35653432      5.53%    100.00% # Class of executed instruction
system.cpu.op_class::IprAccess                      0      0.00%    100.00% # Class of executed instruction
system.cpu.op_class::InstPrefetch                   0      0.00%    100.00% # Class of executed instruction
system.cpu.op_class::total                  644780824                       # Class of executed instruction
system.cpu.dcache.tags.pwrStateResidencyTicks::UNDEFINED 952862491500                       # Cumulative time (in ticks) in various power states
system.cpu.dcache.tags.replacements            115984                       # number of replacements
system.cpu.dcache.tags.tagsinuse          2043.999743                       # Cycle average of tags in use
system.cpu.dcache.tags.total_refs           254694097                       # Total number of references to valid blocks.
system.cpu.dcache.tags.sampled_refs            118032                       # Sample count of references to valid blocks.
system.cpu.dcache.tags.avg_refs           2157.839374                       # Average number of references to valid blocks.
system.cpu.dcache.tags.warmup_cycle        7079469500                       # Cycle when the warmup percentage was hit.
system.cpu.dcache.tags.occ_blocks::cpu.data  2043.999743                       # Average occupied blocks per requestor
system.cpu.dcache.tags.occ_percent::cpu.data     0.998047                       # Average percentage of cache occupancy
system.cpu.dcache.tags.occ_percent::total     0.998047                       # Average percentage of cache occupancy
system.cpu.dcache.tags.occ_task_id_blocks::1024         2048                       # Occupied blocks per task id
system.cpu.dcache.tags.age_task_id_blocks_1024::0            1                       # Occupied blocks per task id
system.cpu.dcache.tags.age_task_id_blocks_1024::1            4                       # Occupied blocks per task id
system.cpu.dcache.tags.age_task_id_blocks_1024::2           74                       # Occupied blocks per task id
system.cpu.dcache.tags.age_task_id_blocks_1024::3          282                       # Occupied blocks per task id
system.cpu.dcache.tags.age_task_id_blocks_1024::4         1687                       # Occupied blocks per task id
system.cpu.dcache.tags.occ_task_id_percent::1024            1                       # Percentage of cache occupancy per task id
system.cpu.dcache.tags.tag_accesses         509742290                       # Number of tag accesses
system.cpu.dcache.tags.data_accesses        509742290                       # Number of data accesses
system.cpu.dcache.pwrStateResidencyTicks::UNDEFINED 952862491500                       # Cumulative time (in ticks) in various power states
system.cpu.dcache.ReadReq_hits::cpu.data    219130758                       # number of ReadReq hits
system.cpu.dcache.ReadReq_hits::total       219130758                       # number of ReadReq hits
system.cpu.dcache.WriteReq_hits::cpu.data     35562765                       # number of WriteReq hits
system.cpu.dcache.WriteReq_hits::total       35562765                       # number of WriteReq hits
system.cpu.dcache.SoftPFReq_hits::cpu.data          574                       # number of SoftPFReq hits
system.cpu.dcache.SoftPFReq_hits::total           574                       # number of SoftPFReq hits
system.cpu.dcache.demand_hits::cpu.data     254693523                       # number of demand (read+write) hits
system.cpu.dcache.demand_hits::total        254693523                       # number of demand (read+write) hits
system.cpu.dcache.overall_hits::cpu.data    254694097                       # number of overall hits
system.cpu.dcache.overall_hits::total       254694097                       # number of overall hits
system.cpu.dcache.ReadReq_misses::cpu.data        25669                       # number of ReadReq misses
system.cpu.dcache.ReadReq_misses::total         25669                       # number of ReadReq misses
system.cpu.dcache.WriteReq_misses::cpu.data        90713                       # number of WriteReq misses
system.cpu.dcache.WriteReq_misses::total        90713                       # number of WriteReq misses
system.cpu.dcache.SoftPFReq_misses::cpu.data         1650                       # number of SoftPFReq misses
system.cpu.dcache.SoftPFReq_misses::total         1650                       # number of SoftPFReq misses
system.cpu.dcache.demand_misses::cpu.data       116382                       # number of demand (read+write) misses
system.cpu.dcache.demand_misses::total         116382                       # number of demand (read+write) misses
system.cpu.dcache.overall_misses::cpu.data       118032                       # number of overall misses
system.cpu.dcache.overall_misses::total        118032                       # number of overall misses
system.cpu.dcache.ReadReq_miss_latency::cpu.data    399110000                       # number of ReadReq miss cycles
system.cpu.dcache.ReadReq_miss_latency::total    399110000                       # number of ReadReq miss cycles
system.cpu.dcache.WriteReq_miss_latency::cpu.data   1489933000                       # number of WriteReq miss cycles
system.cpu.dcache.WriteReq_miss_latency::total   1489933000                       # number of WriteReq miss cycles
system.cpu.dcache.demand_miss_latency::cpu.data   1889043000                       # number of demand (read+write) miss cycles
system.cpu.dcache.demand_miss_latency::total   1889043000                       # number of demand (read+write) miss cycles
system.cpu.dcache.overall_miss_latency::cpu.data   1889043000                       # number of overall miss cycles
system.cpu.dcache.overall_miss_latency::total   1889043000                       # number of overall miss cycles
system.cpu.dcache.ReadReq_accesses::cpu.data    219156427                       # number of ReadReq accesses(hits+misses)
system.cpu.dcache.ReadReq_accesses::total    219156427                       # number of ReadReq accesses(hits+misses)
system.cpu.dcache.WriteReq_accesses::cpu.data     35653478                       # number of WriteReq accesses(hits+misses)
system.cpu.dcache.WriteReq_accesses::total     35653478                       # number of WriteReq accesses(hits+misses)
system.cpu.dcache.SoftPFReq_accesses::cpu.data         2224                       # number of SoftPFReq accesses(hits+misses)
system.cpu.dcache.SoftPFReq_accesses::total         2224                       # number of SoftPFReq accesses(hits+misses)
system.cpu.dcache.demand_accesses::cpu.data    254809905                       # number of demand (read+write) accesses
system.cpu.dcache.demand_accesses::total    254809905                       # number of demand (read+write) accesses
system.cpu.dcache.overall_accesses::cpu.data    254812129                       # number of overall (read+write) accesses
system.cpu.dcache.overall_accesses::total    254812129                       # number of overall (read+write) accesses
system.cpu.dcache.ReadReq_miss_rate::cpu.data     0.000117                       # miss rate for ReadReq accesses
system.cpu.dcache.ReadReq_miss_rate::total     0.000117                       # miss rate for ReadReq accesses
system.cpu.dcache.WriteReq_miss_rate::cpu.data     0.002544                       # miss rate for WriteReq accesses
system.cpu.dcache.WriteReq_miss_rate::total     0.002544                       # miss rate for WriteReq accesses
system.cpu.dcache.SoftPFReq_miss_rate::cpu.data     0.741906                       # miss rate for SoftPFReq accesses
system.cpu.dcache.SoftPFReq_miss_rate::total     0.741906                       # miss rate for SoftPFReq accesses
system.cpu.dcache.demand_miss_rate::cpu.data     0.000457                       # miss rate for demand accesses
system.cpu.dcache.demand_miss_rate::total     0.000457                       # miss rate for demand accesses
system.cpu.dcache.overall_miss_rate::cpu.data     0.000463                       # miss rate for overall accesses
system.cpu.dcache.overall_miss_rate::total     0.000463                       # miss rate for overall accesses
system.cpu.dcache.ReadReq_avg_miss_latency::cpu.data 15548.326775                       # average ReadReq miss latency
system.cpu.dcache.ReadReq_avg_miss_latency::total 15548.326775                       # average ReadReq miss latency
system.cpu.dcache.WriteReq_avg_miss_latency::cpu.data 16424.691059                       # average WriteReq miss latency
system.cpu.dcache.WriteReq_avg_miss_latency::total 16424.691059                       # average WriteReq miss latency
system.cpu.dcache.demand_avg_miss_latency::cpu.data 16231.401763                       # average overall miss latency
system.cpu.dcache.demand_avg_miss_latency::total 16231.401763                       # average overall miss latency
system.cpu.dcache.overall_avg_miss_latency::cpu.data 16004.498780                       # average overall miss latency
system.cpu.dcache.overall_avg_miss_latency::total 16004.498780                       # average overall miss latency
system.cpu.dcache.blocked_cycles::no_mshrs         6694                       # number of cycles access was blocked
system.cpu.dcache.blocked_cycles::no_targets            0                       # number of cycles access was blocked
system.cpu.dcache.blocked::no_mshrs               188                       # number of cycles access was blocked
system.cpu.dcache.blocked::no_targets               0                       # number of cycles access was blocked
system.cpu.dcache.avg_blocked_cycles::no_mshrs    35.606383                       # average number of cycles each access was blocked
system.cpu.dcache.avg_blocked_cycles::no_targets          nan                       # average number of cycles each access was blocked
system.cpu.dcache.writebacks::writebacks       112535                       # number of writebacks
system.cpu.dcache.writebacks::total            112535                       # number of writebacks
system.cpu.dcache.ReadReq_mshr_misses::cpu.data        25669                       # number of ReadReq MSHR misses
system.cpu.dcache.ReadReq_mshr_misses::total        25669                       # number of ReadReq MSHR misses
system.cpu.dcache.WriteReq_mshr_misses::cpu.data        90713                       # number of WriteReq MSHR misses
system.cpu.dcache.WriteReq_mshr_misses::total        90713                       # number of WriteReq MSHR misses
system.cpu.dcache.SoftPFReq_mshr_misses::cpu.data         1650                       # number of SoftPFReq MSHR misses
system.cpu.dcache.SoftPFReq_mshr_misses::total         1650                       # number of SoftPFReq MSHR misses
system.cpu.dcache.demand_mshr_misses::cpu.data       116382                       # number of demand (read+write) MSHR misses
system.cpu.dcache.demand_mshr_misses::total       116382                       # number of demand (read+write) MSHR misses
system.cpu.dcache.overall_mshr_misses::cpu.data       118032                       # number of overall MSHR misses
system.cpu.dcache.overall_mshr_misses::total       118032                       # number of overall MSHR misses
system.cpu.dcache.ReadReq_mshr_miss_latency::cpu.data    373441000                       # number of ReadReq MSHR miss cycles
system.cpu.dcache.ReadReq_mshr_miss_latency::total    373441000                       # number of ReadReq MSHR miss cycles
system.cpu.dcache.WriteReq_mshr_miss_latency::cpu.data   1399220000                       # number of WriteReq MSHR miss cycles
system.cpu.dcache.WriteReq_mshr_miss_latency::total   1399220000                       # number of WriteReq MSHR miss cycles
system.cpu.dcache.SoftPFReq_mshr_miss_latency::cpu.data     58211499                       # number of SoftPFReq MSHR miss cycles
system.cpu.dcache.SoftPFReq_mshr_miss_latency::total     58211499                       # number of SoftPFReq MSHR miss cycles
system.cpu.dcache.demand_mshr_miss_latency::cpu.data   1772661000                       # number of demand (read+write) MSHR miss cycles
system.cpu.dcache.demand_mshr_miss_latency::total   1772661000                       # number of demand (read+write) MSHR miss cycles
system.cpu.dcache.overall_mshr_miss_latency::cpu.data   1830872499                       # number of overall MSHR miss cycles
system.cpu.dcache.overall_mshr_miss_latency::total   1830872499                       # number of overall MSHR miss cycles
system.cpu.dcache.ReadReq_mshr_miss_rate::cpu.data     0.000117                       # mshr miss rate for ReadReq accesses
system.cpu.dcache.ReadReq_mshr_miss_rate::total     0.000117                       # mshr miss rate for ReadReq accesses
system.cpu.dcache.WriteReq_mshr_miss_rate::cpu.data     0.002544                       # mshr miss rate for WriteReq accesses
system.cpu.dcache.WriteReq_mshr_miss_rate::total     0.002544                       # mshr miss rate for WriteReq accesses
system.cpu.dcache.SoftPFReq_mshr_miss_rate::cpu.data     0.741906                       # mshr miss rate for SoftPFReq accesses
system.cpu.dcache.SoftPFReq_mshr_miss_rate::total     0.741906                       # mshr miss rate for SoftPFReq accesses
system.cpu.dcache.demand_mshr_miss_rate::cpu.data     0.000457                       # mshr miss rate for demand accesses
system.cpu.dcache.demand_mshr_miss_rate::total     0.000457                       # mshr miss rate for demand accesses
system.cpu.dcache.overall_mshr_miss_rate::cpu.data     0.000463                       # mshr miss rate for overall accesses
system.cpu.dcache.overall_mshr_miss_rate::total     0.000463                       # mshr miss rate for overall accesses
system.cpu.dcache.ReadReq_avg_mshr_miss_latency::cpu.data 14548.326775                       # average ReadReq mshr miss latency
system.cpu.dcache.ReadReq_avg_mshr_miss_latency::total 14548.326775                       # average ReadReq mshr miss latency
system.cpu.dcache.WriteReq_avg_mshr_miss_latency::cpu.data 15424.691059                       # average WriteReq mshr miss latency
system.cpu.dcache.WriteReq_avg_mshr_miss_latency::total 15424.691059                       # average WriteReq mshr miss latency
system.cpu.dcache.SoftPFReq_avg_mshr_miss_latency::cpu.data 35279.696364                       # average SoftPFReq mshr miss latency
system.cpu.dcache.SoftPFReq_avg_mshr_miss_latency::total 35279.696364                       # average SoftPFReq mshr miss latency
system.cpu.dcache.demand_avg_mshr_miss_latency::cpu.data 15231.401763                       # average overall mshr miss latency
system.cpu.dcache.demand_avg_mshr_miss_latency::total 15231.401763                       # average overall mshr miss latency
system.cpu.dcache.overall_avg_mshr_miss_latency::cpu.data 15511.662083                       # average overall mshr miss latency
system.cpu.dcache.overall_avg_mshr_miss_latency::total 15511.662083                       # average overall mshr miss latency
system.cpu.dtb_walker_cache.tags.pwrStateResidencyTicks::UNDEFINED 952862491500                       # Cumulative time (in ticks) in various power states
system.cpu.dtb_walker_cache.tags.replacements            0                       # number of replacements
system.cpu.dtb_walker_cache.tags.tagsinuse            0                       # Cycle average of tags in use
system.cpu.dtb_walker_cache.tags.total_refs            0                       # Total number of references to valid blocks.
system.cpu.dtb_walker_cache.tags.sampled_refs            0                       # Sample count of references to valid blocks.
system.cpu.dtb_walker_cache.tags.avg_refs          nan                       # Average number of references to valid blocks.
system.cpu.dtb_walker_cache.tags.warmup_cycle            0                       # Cycle when the warmup percentage was hit.
system.cpu.dtb_walker_cache.tags.tag_accesses            0                       # Number of tag accesses
system.cpu.dtb_walker_cache.tags.data_accesses            0                       # Number of data accesses
system.cpu.dtb_walker_cache.pwrStateResidencyTicks::UNDEFINED 952862491500                       # Cumulative time (in ticks) in various power states
system.cpu.dtb_walker_cache.blocked_cycles::no_mshrs            0                       # number of cycles access was blocked
system.cpu.dtb_walker_cache.blocked_cycles::no_targets            0                       # number of cycles access was blocked
system.cpu.dtb_walker_cache.blocked::no_mshrs            0                       # number of cycles access was blocked
system.cpu.dtb_walker_cache.blocked::no_targets            0                       # number of cycles access was blocked
system.cpu.dtb_walker_cache.avg_blocked_cycles::no_mshrs          nan                       # average number of cycles each access was blocked
system.cpu.dtb_walker_cache.avg_blocked_cycles::no_targets          nan                       # average number of cycles each access was blocked
system.cpu.icache.tags.pwrStateResidencyTicks::UNDEFINED 952862491500                       # Cumulative time (in ticks) in various power states
system.cpu.icache.tags.replacements              4155                       # number of replacements
system.cpu.icache.tags.tagsinuse           907.759950                       # Cycle average of tags in use
system.cpu.icache.tags.total_refs           695988167                       # Total number of references to valid blocks.
system.cpu.icache.tags.sampled_refs              5063                       # Sample count of references to valid blocks.
system.cpu.icache.tags.avg_refs          137465.567253                       # Average number of references to valid blocks.
system.cpu.icache.tags.warmup_cycle                 0                       # Cycle when the warmup percentage was hit.
system.cpu.icache.tags.occ_blocks::cpu.inst   907.759950                       # Average occupied blocks per requestor
system.cpu.icache.tags.occ_percent::cpu.inst     0.886484                       # Average percentage of cache occupancy
system.cpu.icache.tags.occ_percent::total     0.886484                       # Average percentage of cache occupancy
system.cpu.icache.tags.occ_task_id_blocks::1024          908                       # Occupied blocks per task id
system.cpu.icache.tags.age_task_id_blocks_1024::3            7                       # Occupied blocks per task id
system.cpu.icache.tags.age_task_id_blocks_1024::4          901                       # Occupied blocks per task id
system.cpu.icache.tags.occ_task_id_percent::1024     0.886719                       # Percentage of cache occupancy per task id
system.cpu.icache.tags.tag_accesses        1391991523                       # Number of tag accesses
system.cpu.icache.tags.data_accesses       1391991523                       # Number of data accesses
system.cpu.icache.pwrStateResidencyTicks::UNDEFINED 952862491500                       # Cumulative time (in ticks) in various power states
system.cpu.icache.ReadReq_hits::cpu.inst    695988167                       # number of ReadReq hits
system.cpu.icache.ReadReq_hits::total       695988167                       # number of ReadReq hits
system.cpu.icache.demand_hits::cpu.inst     695988167                       # number of demand (read+write) hits
system.cpu.icache.demand_hits::total        695988167                       # number of demand (read+write) hits
system.cpu.icache.overall_hits::cpu.inst    695988167                       # number of overall hits
system.cpu.icache.overall_hits::total       695988167                       # number of overall hits
system.cpu.icache.ReadReq_misses::cpu.inst         5063                       # number of ReadReq misses
system.cpu.icache.ReadReq_misses::total          5063                       # number of ReadReq misses
system.cpu.icache.demand_misses::cpu.inst         5063                       # number of demand (read+write) misses
system.cpu.icache.demand_misses::total           5063                       # number of demand (read+write) misses
system.cpu.icache.overall_misses::cpu.inst         5063                       # number of overall misses
system.cpu.icache.overall_misses::total          5063                       # number of overall misses
system.cpu.icache.ReadReq_miss_latency::cpu.inst    286752500                       # number of ReadReq miss cycles
system.cpu.icache.ReadReq_miss_latency::total    286752500                       # number of ReadReq miss cycles
system.cpu.icache.demand_miss_latency::cpu.inst    286752500                       # number of demand (read+write) miss cycles
system.cpu.icache.demand_miss_latency::total    286752500                       # number of demand (read+write) miss cycles
system.cpu.icache.overall_miss_latency::cpu.inst    286752500                       # number of overall miss cycles
system.cpu.icache.overall_miss_latency::total    286752500                       # number of overall miss cycles
system.cpu.icache.ReadReq_accesses::cpu.inst    695993230                       # number of ReadReq accesses(hits+misses)
system.cpu.icache.ReadReq_accesses::total    695993230                       # number of ReadReq accesses(hits+misses)
system.cpu.icache.demand_accesses::cpu.inst    695993230                       # number of demand (read+write) accesses
system.cpu.icache.demand_accesses::total    695993230                       # number of demand (read+write) accesses
system.cpu.icache.overall_accesses::cpu.inst    695993230                       # number of overall (read+write) accesses
system.cpu.icache.overall_accesses::total    695993230                       # number of overall (read+write) accesses
system.cpu.icache.ReadReq_miss_rate::cpu.inst     0.000007                       # miss rate for ReadReq accesses
system.cpu.icache.ReadReq_miss_rate::total     0.000007                       # miss rate for ReadReq accesses
system.cpu.icache.demand_miss_rate::cpu.inst     0.000007                       # miss rate for demand accesses
system.cpu.icache.demand_miss_rate::total     0.000007                       # miss rate for demand accesses
system.cpu.icache.overall_miss_rate::cpu.inst     0.000007                       # miss rate for overall accesses
system.cpu.icache.overall_miss_rate::total     0.000007                       # miss rate for overall accesses
system.cpu.icache.ReadReq_avg_miss_latency::cpu.inst 56636.875370                       # average ReadReq miss latency
system.cpu.icache.ReadReq_avg_miss_latency::total 56636.875370                       # average ReadReq miss latency
system.cpu.icache.demand_avg_miss_latency::cpu.inst 56636.875370                       # average overall miss latency
system.cpu.icache.demand_avg_miss_latency::total 56636.875370                       # average overall miss latency
system.cpu.icache.overall_avg_miss_latency::cpu.inst 56636.875370                       # average overall miss latency
system.cpu.icache.overall_avg_miss_latency::total 56636.875370                       # average overall miss latency
system.cpu.icache.blocked_cycles::no_mshrs            0                       # number of cycles access was blocked
system.cpu.icache.blocked_cycles::no_targets            0                       # number of cycles access was blocked
system.cpu.icache.blocked::no_mshrs                 0                       # number of cycles access was blocked
system.cpu.icache.blocked::no_targets               0                       # number of cycles access was blocked
system.cpu.icache.avg_blocked_cycles::no_mshrs          nan                       # average number of cycles each access was blocked
system.cpu.icache.avg_blocked_cycles::no_targets          nan                       # average number of cycles each access was blocked
system.cpu.icache.writebacks::writebacks         4155                       # number of writebacks
system.cpu.icache.writebacks::total              4155                       # number of writebacks
system.cpu.icache.ReadReq_mshr_misses::cpu.inst         5063                       # number of ReadReq MSHR misses
system.cpu.icache.ReadReq_mshr_misses::total         5063                       # number of ReadReq MSHR misses
system.cpu.icache.demand_mshr_misses::cpu.inst         5063                       # number of demand (read+write) MSHR misses
system.cpu.icache.demand_mshr_misses::total         5063                       # number of demand (read+write) MSHR misses
system.cpu.icache.overall_mshr_misses::cpu.inst         5063                       # number of overall MSHR misses
system.cpu.icache.overall_mshr_misses::total         5063                       # number of overall MSHR misses
system.cpu.icache.ReadReq_mshr_miss_latency::cpu.inst    281689500                       # number of ReadReq MSHR miss cycles
system.cpu.icache.ReadReq_mshr_miss_latency::total    281689500                       # number of ReadReq MSHR miss cycles
system.cpu.icache.demand_mshr_miss_latency::cpu.inst    281689500                       # number of demand (read+write) MSHR miss cycles
system.cpu.icache.demand_mshr_miss_latency::total    281689500                       # number of demand (read+write) MSHR miss cycles
system.cpu.icache.overall_mshr_miss_latency::cpu.inst    281689500                       # number of overall MSHR miss cycles
system.cpu.icache.overall_mshr_miss_latency::total    281689500                       # number of overall MSHR miss cycles
system.cpu.icache.ReadReq_mshr_miss_rate::cpu.inst     0.000007                       # mshr miss rate for ReadReq accesses
system.cpu.icache.ReadReq_mshr_miss_rate::total     0.000007                       # mshr miss rate for ReadReq accesses
system.cpu.icache.demand_mshr_miss_rate::cpu.inst     0.000007                       # mshr miss rate for demand accesses
system.cpu.icache.demand_mshr_miss_rate::total     0.000007                       # mshr miss rate for demand accesses
system.cpu.icache.overall_mshr_miss_rate::cpu.inst     0.000007                       # mshr miss rate for overall accesses
system.cpu.icache.overall_mshr_miss_rate::total     0.000007                       # mshr miss rate for overall accesses
system.cpu.icache.ReadReq_avg_mshr_miss_latency::cpu.inst 55636.875370                       # average ReadReq mshr miss latency
system.cpu.icache.ReadReq_avg_mshr_miss_latency::total 55636.875370                       # average ReadReq mshr miss latency
system.cpu.icache.demand_avg_mshr_miss_latency::cpu.inst 55636.875370                       # average overall mshr miss latency
system.cpu.icache.demand_avg_mshr_miss_latency::total 55636.875370                       # average overall mshr miss latency
system.cpu.icache.overall_avg_mshr_miss_latency::cpu.inst 55636.875370                       # average overall mshr miss latency
system.cpu.icache.overall_avg_mshr_miss_latency::total 55636.875370                       # average overall mshr miss latency
system.cpu.itb_walker_cache.tags.pwrStateResidencyTicks::UNDEFINED 952862491500                       # Cumulative time (in ticks) in various power states
system.cpu.itb_walker_cache.tags.replacements            0                       # number of replacements
system.cpu.itb_walker_cache.tags.tagsinuse            0                       # Cycle average of tags in use
system.cpu.itb_walker_cache.tags.total_refs            0                       # Total number of references to valid blocks.
system.cpu.itb_walker_cache.tags.sampled_refs            0                       # Sample count of references to valid blocks.
system.cpu.itb_walker_cache.tags.avg_refs          nan                       # Average number of references to valid blocks.
system.cpu.itb_walker_cache.tags.warmup_cycle            0                       # Cycle when the warmup percentage was hit.
system.cpu.itb_walker_cache.tags.tag_accesses            0                       # Number of tag accesses
system.cpu.itb_walker_cache.tags.data_accesses            0                       # Number of data accesses
system.cpu.itb_walker_cache.pwrStateResidencyTicks::UNDEFINED 952862491500                       # Cumulative time (in ticks) in various power states
system.cpu.itb_walker_cache.blocked_cycles::no_mshrs            0                       # number of cycles access was blocked
system.cpu.itb_walker_cache.blocked_cycles::no_targets            0                       # number of cycles access was blocked
system.cpu.itb_walker_cache.blocked::no_mshrs            0                       # number of cycles access was blocked
system.cpu.itb_walker_cache.blocked::no_targets            0                       # number of cycles access was blocked
system.cpu.itb_walker_cache.avg_blocked_cycles::no_mshrs          nan                       # average number of cycles each access was blocked
system.cpu.itb_walker_cache.avg_blocked_cycles::no_targets          nan                       # average number of cycles each access was blocked
system.l2.tags.pwrStateResidencyTicks::UNDEFINED 952862491500                       # Cumulative time (in ticks) in various power states
system.l2.tags.replacements                      1246                       # number of replacements
system.l2.tags.tagsinuse                  5679.008421                       # Cycle average of tags in use
system.l2.tags.total_refs                      236210                       # Total number of references to valid blocks.
system.l2.tags.sampled_refs                      6962                       # Sample count of references to valid blocks.
system.l2.tags.avg_refs                     33.928469                       # Average number of references to valid blocks.
system.l2.tags.warmup_cycle                         0                       # Cycle when the warmup percentage was hit.
system.l2.tags.occ_blocks::writebacks       76.551093                       # Average occupied blocks per requestor
system.l2.tags.occ_blocks::cpu.inst       1074.509675                       # Average occupied blocks per requestor
system.l2.tags.occ_blocks::cpu.data       4527.947653                       # Average occupied blocks per requestor
system.l2.tags.occ_percent::writebacks       0.004672                       # Average percentage of cache occupancy
system.l2.tags.occ_percent::cpu.inst         0.065583                       # Average percentage of cache occupancy
system.l2.tags.occ_percent::cpu.data         0.276364                       # Average percentage of cache occupancy
system.l2.tags.occ_percent::total            0.346619                       # Average percentage of cache occupancy
system.l2.tags.occ_task_id_blocks::1024          5716                       # Occupied blocks per task id
system.l2.tags.age_task_id_blocks_1024::2            1                       # Occupied blocks per task id
system.l2.tags.age_task_id_blocks_1024::4         5715                       # Occupied blocks per task id
system.l2.tags.occ_task_id_percent::1024     0.348877                       # Percentage of cache occupancy per task id
system.l2.tags.tag_accesses                    250195                       # Number of tag accesses
system.l2.tags.data_accesses                   250195                       # Number of data accesses
system.l2.pwrStateResidencyTicks::UNDEFINED 952862491500                       # Cumulative time (in ticks) in various power states
system.l2.WritebackDirty_hits::writebacks       112535                       # number of WritebackDirty hits
system.l2.WritebackDirty_hits::total           112535                       # number of WritebackDirty hits
system.l2.WritebackClean_hits::writebacks         4154                       # number of WritebackClean hits
system.l2.WritebackClean_hits::total             4154                       # number of WritebackClean hits
system.l2.ReadExReq_hits::cpu.data              87020                       # number of ReadExReq hits
system.l2.ReadExReq_hits::total                 87020                       # number of ReadExReq hits
system.l2.ReadCleanReq_hits::cpu.inst            3491                       # number of ReadCleanReq hits
system.l2.ReadCleanReq_hits::total               3491                       # number of ReadCleanReq hits
system.l2.ReadSharedReq_hits::cpu.data          26120                       # number of ReadSharedReq hits
system.l2.ReadSharedReq_hits::total             26120                       # number of ReadSharedReq hits
system.l2.demand_hits::cpu.inst                  3491                       # number of demand (read+write) hits
system.l2.demand_hits::cpu.data                113140                       # number of demand (read+write) hits
system.l2.demand_hits::total                   116631                       # number of demand (read+write) hits
system.l2.overall_hits::cpu.inst                 3491                       # number of overall hits
system.l2.overall_hits::cpu.data               113140                       # number of overall hits
system.l2.overall_hits::total                  116631                       # number of overall hits
system.l2.ReadExReq_misses::cpu.data             3693                       # number of ReadExReq misses
system.l2.ReadExReq_misses::total                3693                       # number of ReadExReq misses
system.l2.ReadCleanReq_misses::cpu.inst          1572                       # number of ReadCleanReq misses
system.l2.ReadCleanReq_misses::total             1572                       # number of ReadCleanReq misses
system.l2.ReadSharedReq_misses::cpu.data         1199                       # number of ReadSharedReq misses
system.l2.ReadSharedReq_misses::total            1199                       # number of ReadSharedReq misses
system.l2.demand_misses::cpu.inst                1572                       # number of demand (read+write) misses
system.l2.demand_misses::cpu.data                4892                       # number of demand (read+write) misses
system.l2.demand_misses::total                   6464                       # number of demand (read+write) misses
system.l2.overall_misses::cpu.inst               1572                       # number of overall misses
system.l2.overall_misses::cpu.data               4892                       # number of overall misses
system.l2.overall_misses::total                  6464                       # number of overall misses
system.l2.ReadExReq_miss_latency::cpu.data    349246500                       # number of ReadExReq miss cycles
system.l2.ReadExReq_miss_latency::total     349246500                       # number of ReadExReq miss cycles
system.l2.ReadCleanReq_miss_latency::cpu.inst    237416000                       # number of ReadCleanReq miss cycles
system.l2.ReadCleanReq_miss_latency::total    237416000                       # number of ReadCleanReq miss cycles
system.l2.ReadSharedReq_miss_latency::cpu.data    116407500                       # number of ReadSharedReq miss cycles
system.l2.ReadSharedReq_miss_latency::total    116407500                       # number of ReadSharedReq miss cycles
system.l2.demand_miss_latency::cpu.inst     237416000                       # number of demand (read+write) miss cycles
system.l2.demand_miss_latency::cpu.data     465654000                       # number of demand (read+write) miss cycles
system.l2.demand_miss_latency::total        703070000                       # number of demand (read+write) miss cycles
system.l2.overall_miss_latency::cpu.inst    237416000                       # number of overall miss cycles
system.l2.overall_miss_latency::cpu.data    465654000                       # number of overall miss cycles
system.l2.overall_miss_latency::total       703070000                       # number of overall miss cycles
system.l2.WritebackDirty_accesses::writebacks       112535                       # number of WritebackDirty accesses(hits+misses)
system.l2.WritebackDirty_accesses::total       112535                       # number of WritebackDirty accesses(hits+misses)
system.l2.WritebackClean_accesses::writebacks         4154                       # number of WritebackClean accesses(hits+misses)
system.l2.WritebackClean_accesses::total         4154                       # number of WritebackClean accesses(hits+misses)
system.l2.ReadExReq_accesses::cpu.data          90713                       # number of ReadExReq accesses(hits+misses)
system.l2.ReadExReq_accesses::total             90713                       # number of ReadExReq accesses(hits+misses)
system.l2.ReadCleanReq_accesses::cpu.inst         5063                       # number of ReadCleanReq accesses(hits+misses)
system.l2.ReadCleanReq_accesses::total           5063                       # number of ReadCleanReq accesses(hits+misses)
system.l2.ReadSharedReq_accesses::cpu.data        27319                       # number of ReadSharedReq accesses(hits+misses)
system.l2.ReadSharedReq_accesses::total         27319                       # number of ReadSharedReq accesses(hits+misses)
system.l2.demand_accesses::cpu.inst              5063                       # number of demand (read+write) accesses
system.l2.demand_accesses::cpu.data            118032                       # number of demand (read+write) accesses
system.l2.demand_accesses::total               123095                       # number of demand (read+write) accesses
system.l2.overall_accesses::cpu.inst             5063                       # number of overall (read+write) accesses
system.l2.overall_accesses::cpu.data           118032                       # number of overall (read+write) accesses
system.l2.overall_accesses::total              123095                       # number of overall (read+write) accesses
system.l2.ReadExReq_miss_rate::cpu.data      0.040711                       # miss rate for ReadExReq accesses
system.l2.ReadExReq_miss_rate::total         0.040711                       # miss rate for ReadExReq accesses
system.l2.ReadCleanReq_miss_rate::cpu.inst     0.310488                       # miss rate for ReadCleanReq accesses
system.l2.ReadCleanReq_miss_rate::total      0.310488                       # miss rate for ReadCleanReq accesses
system.l2.ReadSharedReq_miss_rate::cpu.data     0.043889                       # miss rate for ReadSharedReq accesses
system.l2.ReadSharedReq_miss_rate::total     0.043889                       # miss rate for ReadSharedReq accesses
system.l2.demand_miss_rate::cpu.inst         0.310488                       # miss rate for demand accesses
system.l2.demand_miss_rate::cpu.data         0.041446                       # miss rate for demand accesses
system.l2.demand_miss_rate::total            0.052512                       # miss rate for demand accesses
system.l2.overall_miss_rate::cpu.inst        0.310488                       # miss rate for overall accesses
system.l2.overall_miss_rate::cpu.data        0.041446                       # miss rate for overall accesses
system.l2.overall_miss_rate::total           0.052512                       # miss rate for overall accesses
system.l2.ReadExReq_avg_miss_latency::cpu.data 94569.861901                       # average ReadExReq miss latency
system.l2.ReadExReq_avg_miss_latency::total 94569.861901                       # average ReadExReq miss latency
system.l2.ReadCleanReq_avg_miss_latency::cpu.inst 151027.989822                       # average ReadCleanReq miss latency
system.l2.ReadCleanReq_avg_miss_latency::total 151027.989822                       # average ReadCleanReq miss latency
system.l2.ReadSharedReq_avg_miss_latency::cpu.data 97087.155963                       # average ReadSharedReq miss latency
system.l2.ReadSharedReq_avg_miss_latency::total 97087.155963                       # average ReadSharedReq miss latency
system.l2.demand_avg_miss_latency::cpu.inst 151027.989822                       # average overall miss latency
system.l2.demand_avg_miss_latency::cpu.data 95186.835650                       # average overall miss latency
system.l2.demand_avg_miss_latency::total 108767.017327                       # average overall miss latency
system.l2.overall_avg_miss_latency::cpu.inst 151027.989822                       # average overall miss latency
system.l2.overall_avg_miss_latency::cpu.data 95186.835650                       # average overall miss latency
system.l2.overall_avg_miss_latency::total 108767.017327                       # average overall miss latency
system.l2.blocked_cycles::no_mshrs                  0                       # number of cycles access was blocked
system.l2.blocked_cycles::no_targets                0                       # number of cycles access was blocked
system.l2.blocked::no_mshrs                         0                       # number of cycles access was blocked
system.l2.blocked::no_targets                       0                       # number of cycles access was blocked
system.l2.avg_blocked_cycles::no_mshrs            nan                       # average number of cycles each access was blocked
system.l2.avg_blocked_cycles::no_targets          nan                       # average number of cycles each access was blocked
system.l2.writebacks::writebacks                  195                       # number of writebacks
system.l2.writebacks::total                       195                       # number of writebacks
system.l2.CleanEvict_mshr_misses::writebacks           61                       # number of CleanEvict MSHR misses
system.l2.CleanEvict_mshr_misses::total            61                       # number of CleanEvict MSHR misses
system.l2.ReadExReq_mshr_misses::cpu.data         3693                       # number of ReadExReq MSHR misses
system.l2.ReadExReq_mshr_misses::total           3693                       # number of ReadExReq MSHR misses
system.l2.ReadCleanReq_mshr_misses::cpu.inst         1572                       # number of ReadCleanReq MSHR misses
system.l2.ReadCleanReq_mshr_misses::total         1572                       # number of ReadCleanReq MSHR misses
system.l2.ReadSharedReq_mshr_misses::cpu.data         1199                       # number of ReadSharedReq MSHR misses
system.l2.ReadSharedReq_mshr_misses::total         1199                       # number of ReadSharedReq MSHR misses
system.l2.demand_mshr_misses::cpu.inst           1572                       # number of demand (read+write) MSHR misses
system.l2.demand_mshr_misses::cpu.data           4892                       # number of demand (read+write) MSHR misses
system.l2.demand_mshr_misses::total              6464                       # number of demand (read+write) MSHR misses
system.l2.overall_mshr_misses::cpu.inst          1572                       # number of overall MSHR misses
system.l2.overall_mshr_misses::cpu.data          4892                       # number of overall MSHR misses
system.l2.overall_mshr_misses::total             6464                       # number of overall MSHR misses
system.l2.ReadExReq_mshr_miss_latency::cpu.data    312316500                       # number of ReadExReq MSHR miss cycles
system.l2.ReadExReq_mshr_miss_latency::total    312316500                       # number of ReadExReq MSHR miss cycles
system.l2.ReadCleanReq_mshr_miss_latency::cpu.inst    221696000                       # number of ReadCleanReq MSHR miss cycles
system.l2.ReadCleanReq_mshr_miss_latency::total    221696000                       # number of ReadCleanReq MSHR miss cycles
system.l2.ReadSharedReq_mshr_miss_latency::cpu.data    104417500                       # number of ReadSharedReq MSHR miss cycles
system.l2.ReadSharedReq_mshr_miss_latency::total    104417500                       # number of ReadSharedReq MSHR miss cycles
system.l2.demand_mshr_miss_latency::cpu.inst    221696000                       # number of demand (read+write) MSHR miss cycles
system.l2.demand_mshr_miss_latency::cpu.data    416734000                       # number of demand (read+write) MSHR miss cycles
system.l2.demand_mshr_miss_latency::total    638430000                       # number of demand (read+write) MSHR miss cycles
system.l2.overall_mshr_miss_latency::cpu.inst    221696000                       # number of overall MSHR miss cycles
system.l2.overall_mshr_miss_latency::cpu.data    416734000                       # number of overall MSHR miss cycles
system.l2.overall_mshr_miss_latency::total    638430000                       # number of overall MSHR miss cycles
system.l2.CleanEvict_mshr_miss_rate::writebacks          inf                       # mshr miss rate for CleanEvict accesses
system.l2.CleanEvict_mshr_miss_rate::total          inf                       # mshr miss rate for CleanEvict accesses
system.l2.ReadExReq_mshr_miss_rate::cpu.data     0.040711                       # mshr miss rate for ReadExReq accesses
system.l2.ReadExReq_mshr_miss_rate::total     0.040711                       # mshr miss rate for ReadExReq accesses
system.l2.ReadCleanReq_mshr_miss_rate::cpu.inst     0.310488                       # mshr miss rate for ReadCleanReq accesses
system.l2.ReadCleanReq_mshr_miss_rate::total     0.310488                       # mshr miss rate for ReadCleanReq accesses
system.l2.ReadSharedReq_mshr_miss_rate::cpu.data     0.043889                       # mshr miss rate for ReadSharedReq accesses
system.l2.ReadSharedReq_mshr_miss_rate::total     0.043889                       # mshr miss rate for ReadSharedReq accesses
system.l2.demand_mshr_miss_rate::cpu.inst     0.310488                       # mshr miss rate for demand accesses
system.l2.demand_mshr_miss_rate::cpu.data     0.041446                       # mshr miss rate for demand accesses
system.l2.demand_mshr_miss_rate::total       0.052512                       # mshr miss rate for demand accesses
system.l2.overall_mshr_miss_rate::cpu.inst     0.310488                       # mshr miss rate for overall accesses
system.l2.overall_mshr_miss_rate::cpu.data     0.041446                       # mshr miss rate for overall accesses
system.l2.overall_mshr_miss_rate::total      0.052512                       # mshr miss rate for overall accesses
system.l2.ReadExReq_avg_mshr_miss_latency::cpu.data 84569.861901                       # average ReadExReq mshr miss latency
system.l2.ReadExReq_avg_mshr_miss_latency::total 84569.861901                       # average ReadExReq mshr miss latency
system.l2.ReadCleanReq_avg_mshr_miss_latency::cpu.inst 141027.989822                       # average ReadCleanReq mshr miss latency
system.l2.ReadCleanReq_avg_mshr_miss_latency::total 141027.989822                       # average ReadCleanReq mshr miss latency
system.l2.ReadSharedReq_avg_mshr_miss_latency::cpu.data 87087.155963                       # average ReadSharedReq mshr miss latency
system.l2.ReadSharedReq_avg_mshr_miss_latency::total 87087.155963                       # average ReadSharedReq mshr miss latency
system.l2.demand_avg_mshr_miss_latency::cpu.inst 141027.989822                       # average overall mshr miss latency
system.l2.demand_avg_mshr_miss_latency::cpu.data 85186.835650                       # average overall mshr miss latency
system.l2.demand_avg_mshr_miss_latency::total 98767.017327                       # average overall mshr miss latency
system.l2.overall_avg_mshr_miss_latency::cpu.inst 141027.989822                       # average overall mshr miss latency
system.l2.overall_avg_mshr_miss_latency::cpu.data 85186.835650                       # average overall mshr miss latency
system.l2.overall_avg_mshr_miss_latency::total 98767.017327                       # average overall mshr miss latency
system.membus.snoop_filter.tot_requests          7044                       # Total number of requests made to the snoop filter.
system.membus.snoop_filter.hit_single_requests          580                       # Number of requests hitting in the snoop filter with a single holder of the requested data.
system.membus.snoop_filter.hit_multi_requests            0                       # Number of requests hitting in the snoop filter with multiple (>1) holders of the requested data.
system.membus.snoop_filter.tot_snoops               0                       # Total number of snoops made to the snoop filter.
system.membus.snoop_filter.hit_single_snoops            0                       # Number of snoops hitting in the snoop filter with a single holder of the requested data.
system.membus.snoop_filter.hit_multi_snoops            0                       # Number of snoops hitting in the snoop filter with multiple (>1) holders of the requested data.
system.membus.pwrStateResidencyTicks::UNDEFINED 952862491500                       # Cumulative time (in ticks) in various power states
system.membus.trans_dist::ReadResp               2771                       # Transaction distribution
system.membus.trans_dist::WritebackDirty          195                       # Transaction distribution
system.membus.trans_dist::CleanEvict              385                       # Transaction distribution
system.membus.trans_dist::ReadExReq              3693                       # Transaction distribution
system.membus.trans_dist::ReadExResp             3693                       # Transaction distribution
system.membus.trans_dist::ReadSharedReq          2771                       # Transaction distribution
system.membus.pkt_count_system.l2.mem_side::system.mem_ctrls.port        13508                       # Packet count per connected master and slave (bytes)
system.membus.pkt_count_system.l2.mem_side::total        13508                       # Packet count per connected master and slave (bytes)
system.membus.pkt_count::total                  13508                       # Packet count per connected master and slave (bytes)
system.membus.pkt_size_system.l2.mem_side::system.mem_ctrls.port       426176                       # Cumulative packet size per connected master and slave (bytes)
system.membus.pkt_size_system.l2.mem_side::total       426176                       # Cumulative packet size per connected master and slave (bytes)
system.membus.pkt_size::total                  426176                       # Cumulative packet size per connected master and slave (bytes)
system.membus.snoops                                0                       # Total snoops (count)
system.membus.snoopTraffic                          0                       # Total snoop traffic (bytes)
system.membus.snoop_fanout::samples              6464                       # Request fanout histogram
system.membus.snoop_fanout::mean                    0                       # Request fanout histogram
system.membus.snoop_fanout::stdev                   0                       # Request fanout histogram
system.membus.snoop_fanout::underflows              0      0.00%      0.00% # Request fanout histogram
system.membus.snoop_fanout::0                    6464    100.00%    100.00% # Request fanout histogram
system.membus.snoop_fanout::1                       0      0.00%    100.00% # Request fanout histogram
system.membus.snoop_fanout::overflows               0      0.00%    100.00% # Request fanout histogram
system.membus.snoop_fanout::min_value               0                       # Request fanout histogram
system.membus.snoop_fanout::max_value               0                       # Request fanout histogram
system.membus.snoop_fanout::total                6464                       # Request fanout histogram
system.membus.reqLayer2.occupancy             8169500                       # Layer occupancy (ticks)
system.membus.reqLayer2.utilization               0.0                       # Layer utilization (%)
system.membus.respLayer1.occupancy           34497250                       # Layer occupancy (ticks)
system.membus.respLayer1.utilization              0.0                       # Layer utilization (%)
system.tol2bus.snoop_filter.tot_requests       243234                       # Total number of requests made to the snoop filter.
system.tol2bus.snoop_filter.hit_single_requests       120139                       # Number of requests hitting in the snoop filter with a single holder of the requested data.
system.tol2bus.snoop_filter.hit_multi_requests            1                       # Number of requests hitting in the snoop filter with multiple (>1) holders of the requested data.
system.tol2bus.snoop_filter.tot_snoops            727                       # Total number of snoops made to the snoop filter.
system.tol2bus.snoop_filter.hit_single_snoops          727                       # Number of snoops hitting in the snoop filter with a single holder of the requested data.
system.tol2bus.snoop_filter.hit_multi_snoops            0                       # Number of snoops hitting in the snoop filter with multiple (>1) holders of the requested data.
system.tol2bus.pwrStateResidencyTicks::UNDEFINED 952862491500                       # Cumulative time (in ticks) in various power states
system.tol2bus.trans_dist::ReadResp             32382                       # Transaction distribution
system.tol2bus.trans_dist::WritebackDirty       112730                       # Transaction distribution
system.tol2bus.trans_dist::WritebackClean         4155                       # Transaction distribution
system.tol2bus.trans_dist::CleanEvict            4500                       # Transaction distribution
system.tol2bus.trans_dist::ReadExReq            90713                       # Transaction distribution
system.tol2bus.trans_dist::ReadExResp           90713                       # Transaction distribution
system.tol2bus.trans_dist::ReadCleanReq          5063                       # Transaction distribution
system.tol2bus.trans_dist::ReadSharedReq        27319                       # Transaction distribution
system.tol2bus.pkt_count_system.cpu.icache.mem_side::system.l2.cpu_side        14281                       # Packet count per connected master and slave (bytes)
system.tol2bus.pkt_count_system.cpu.dcache.mem_side::system.l2.cpu_side       352048                       # Packet count per connected master and slave (bytes)
system.tol2bus.pkt_count::total                366329                       # Packet count per connected master and slave (bytes)
system.tol2bus.pkt_size_system.cpu.icache.mem_side::system.l2.cpu_side       589952                       # Cumulative packet size per connected master and slave (bytes)
system.tol2bus.pkt_size_system.cpu.dcache.mem_side::system.l2.cpu_side     14756288                       # Cumulative packet size per connected master and slave (bytes)
system.tol2bus.pkt_size::total               15346240                       # Cumulative packet size per connected master and slave (bytes)
system.tol2bus.snoops                            1246                       # Total snoops (count)
system.tol2bus.snoopTraffic                     12480                       # Total snoop traffic (bytes)
system.tol2bus.snoop_fanout::samples           124341                       # Request fanout histogram
system.tol2bus.snoop_fanout::mean            0.005855                       # Request fanout histogram
system.tol2bus.snoop_fanout::stdev           0.076293                       # Request fanout histogram
system.tol2bus.snoop_fanout::underflows             0      0.00%      0.00% # Request fanout histogram
system.tol2bus.snoop_fanout::0                 123613     99.41%     99.41% # Request fanout histogram
system.tol2bus.snoop_fanout::1                    728      0.59%    100.00% # Request fanout histogram
system.tol2bus.snoop_fanout::2                      0      0.00%    100.00% # Request fanout histogram
system.tol2bus.snoop_fanout::3                      0      0.00%    100.00% # Request fanout histogram
system.tol2bus.snoop_fanout::4                      0      0.00%    100.00% # Request fanout histogram
system.tol2bus.snoop_fanout::overflows              0      0.00%    100.00% # Request fanout histogram
system.tol2bus.snoop_fanout::min_value              0                       # Request fanout histogram
system.tol2bus.snoop_fanout::max_value              1                       # Request fanout histogram
system.tol2bus.snoop_fanout::total             124341                       # Request fanout histogram
system.tol2bus.reqLayer0.occupancy          238307000                       # Layer occupancy (ticks)
system.tol2bus.reqLayer0.utilization              0.0                       # Layer utilization (%)
system.tol2bus.respLayer0.occupancy           7594500                       # Layer occupancy (ticks)
system.tol2bus.respLayer0.utilization             0.0                       # Layer utilization (%)
system.tol2bus.respLayer1.occupancy         177048000                       # Layer occupancy (ticks)
system.tol2bus.respLayer1.utilization             0.0                       # Layer utilization (%)

---------- End Simulation Statistics   ----------
