
---------- Begin Simulation Statistics ----------
sim_seconds                                  0.959963                       # Number of seconds simulated
sim_ticks                                959963464500                       # Number of ticks simulated
final_tick                               959963464500                       # Number of ticks from beginning of simulation (restored from checkpoints and never reset)
sim_freq                                 1000000000000                       # Frequency of simulated ticks
host_inst_rate                                 634739                       # Simulator instruction rate (inst/s)
host_op_rate                                   818535                       # Simulator op (including micro ops) rate (op/s)
host_tick_rate                             1218652452                       # Simulator tick rate (ticks/s)
host_mem_usage                                 669084                       # Number of bytes of host memory used
host_seconds                                   787.73                       # Real time elapsed on the host
sim_insts                                   500000000                       # Number of instructions simulated
sim_ops                                     644780824                       # Number of ops (including micro ops) simulated
system.voltage_domain.voltage                       1                       # Voltage in Volts
system.clk_domain.clock                          1000                       # Clock period in ticks
system.mem_ctrls.pwrStateResidencyTicks::UNDEFINED 959963464500                       # Cumulative time (in ticks) in various power states
system.mem_ctrls.bytes_read::cpu.inst           95904                       # Number of bytes read from this memory
system.mem_ctrls.bytes_read::cpu.data          313056                       # Number of bytes read from this memory
system.mem_ctrls.bytes_read::total             408960                       # Number of bytes read from this memory
system.mem_ctrls.bytes_inst_read::cpu.inst        95904                       # Number of instructions bytes read from this memory
system.mem_ctrls.bytes_inst_read::total         95904                       # Number of instructions bytes read from this memory
system.mem_ctrls.bytes_written::writebacks        21056                       # Number of bytes written to this memory
system.mem_ctrls.bytes_written::total           21056                       # Number of bytes written to this memory
system.mem_ctrls.num_reads::cpu.inst             2997                       # Number of read requests responded to by this memory
system.mem_ctrls.num_reads::cpu.data             9783                       # Number of read requests responded to by this memory
system.mem_ctrls.num_reads::total               12780                       # Number of read requests responded to by this memory
system.mem_ctrls.num_writes::writebacks           658                       # Number of write requests responded to by this memory
system.mem_ctrls.num_writes::total                658                       # Number of write requests responded to by this memory
system.mem_ctrls.bw_read::cpu.inst              99904                       # Total read bandwidth from this memory (bytes/s)
system.mem_ctrls.bw_read::cpu.data             326112                       # Total read bandwidth from this memory (bytes/s)
system.mem_ctrls.bw_read::total                426016                       # Total read bandwidth from this memory (bytes/s)
system.mem_ctrls.bw_inst_read::cpu.inst         99904                       # Instruction read bandwidth from this memory (bytes/s)
system.mem_ctrls.bw_inst_read::total            99904                       # Instruction read bandwidth from this memory (bytes/s)
system.mem_ctrls.bw_write::writebacks           21934                       # Write bandwidth from this memory (bytes/s)
system.mem_ctrls.bw_write::total                21934                       # Write bandwidth from this memory (bytes/s)
system.mem_ctrls.bw_total::writebacks           21934                       # Total bandwidth to/from this memory (bytes/s)
system.mem_ctrls.bw_total::cpu.inst             99904                       # Total bandwidth to/from this memory (bytes/s)
system.mem_ctrls.bw_total::cpu.data            326112                       # Total bandwidth to/from this memory (bytes/s)
system.mem_ctrls.bw_total::total               447950                       # Total bandwidth to/from this memory (bytes/s)
system.mem_ctrls.readReqs                       12780                       # Number of read requests accepted
system.mem_ctrls.writeReqs                        658                       # Number of write requests accepted
system.mem_ctrls.readBursts                     12780                       # Number of DRAM read bursts, including those serviced by the write queue
system.mem_ctrls.writeBursts                      658                       # Number of DRAM write bursts, including those merged in the write queue
system.mem_ctrls.bytesReadDRAM                 797248                       # Total number of bytes read from DRAM
system.mem_ctrls.bytesReadWrQ                   20672                       # Total number of bytes read from write queue
system.mem_ctrls.bytesWritten                       0                       # Total number of bytes written to DRAM
system.mem_ctrls.bytesReadSys                  408960                       # Total read bytes from the system interface side
system.mem_ctrls.bytesWrittenSys                21056                       # Total written bytes from the system interface side
system.mem_ctrls.servicedByWrQ                    323                       # Number of DRAM read bursts serviced by the write queue
system.mem_ctrls.mergedWrBursts                   632                       # Number of DRAM write bursts merged with an existing one
system.mem_ctrls.neitherReadNorWriteReqs            0                       # Number of requests that are neither read nor write
system.mem_ctrls.perBankRdBursts::0               607                       # Per bank write bursts
system.mem_ctrls.perBankRdBursts::1               674                       # Per bank write bursts
system.mem_ctrls.perBankRdBursts::2               799                       # Per bank write bursts
system.mem_ctrls.perBankRdBursts::3               610                       # Per bank write bursts
system.mem_ctrls.perBankRdBursts::4              1839                       # Per bank write bursts
system.mem_ctrls.perBankRdBursts::5               770                       # Per bank write bursts
system.mem_ctrls.perBankRdBursts::6               660                       # Per bank write bursts
system.mem_ctrls.perBankRdBursts::7               794                       # Per bank write bursts
system.mem_ctrls.perBankRdBursts::8               711                       # Per bank write bursts
system.mem_ctrls.perBankRdBursts::9               715                       # Per bank write bursts
system.mem_ctrls.perBankRdBursts::10              820                       # Per bank write bursts
system.mem_ctrls.perBankRdBursts::11              899                       # Per bank write bursts
system.mem_ctrls.perBankRdBursts::12              702                       # Per bank write bursts
system.mem_ctrls.perBankRdBursts::13              628                       # Per bank write bursts
system.mem_ctrls.perBankRdBursts::14              607                       # Per bank write bursts
system.mem_ctrls.perBankRdBursts::15              622                       # Per bank write bursts
system.mem_ctrls.perBankWrBursts::0                 0                       # Per bank write bursts
system.mem_ctrls.perBankWrBursts::1                 0                       # Per bank write bursts
system.mem_ctrls.perBankWrBursts::2                 0                       # Per bank write bursts
system.mem_ctrls.perBankWrBursts::3                 0                       # Per bank write bursts
system.mem_ctrls.perBankWrBursts::4                 0                       # Per bank write bursts
system.mem_ctrls.perBankWrBursts::5                 0                       # Per bank write bursts
system.mem_ctrls.perBankWrBursts::6                 0                       # Per bank write bursts
system.mem_ctrls.perBankWrBursts::7                 0                       # Per bank write bursts
system.mem_ctrls.perBankWrBursts::8                 0                       # Per bank write bursts
system.mem_ctrls.perBankWrBursts::9                 0                       # Per bank write bursts
system.mem_ctrls.perBankWrBursts::10                0                       # Per bank write bursts
system.mem_ctrls.perBankWrBursts::11                0                       # Per bank write bursts
system.mem_ctrls.perBankWrBursts::12                0                       # Per bank write bursts
system.mem_ctrls.perBankWrBursts::13                0                       # Per bank write bursts
system.mem_ctrls.perBankWrBursts::14                0                       # Per bank write bursts
system.mem_ctrls.perBankWrBursts::15                0                       # Per bank write bursts
system.mem_ctrls.numRdRetry                         0                       # Number of times read queue was full causing retry
system.mem_ctrls.numWrRetry                         0                       # Number of times write queue was full causing retry
system.mem_ctrls.totGap                  957108124500                       # Total gap between requests
system.mem_ctrls.readPktSize::0                     0                       # Read request sizes (log2)
system.mem_ctrls.readPktSize::1                     0                       # Read request sizes (log2)
system.mem_ctrls.readPktSize::2                     0                       # Read request sizes (log2)
system.mem_ctrls.readPktSize::3                     0                       # Read request sizes (log2)
system.mem_ctrls.readPktSize::4                     0                       # Read request sizes (log2)
system.mem_ctrls.readPktSize::5                 12780                       # Read request sizes (log2)
system.mem_ctrls.readPktSize::6                     0                       # Read request sizes (log2)
system.mem_ctrls.writePktSize::0                    0                       # Write request sizes (log2)
system.mem_ctrls.writePktSize::1                    0                       # Write request sizes (log2)
system.mem_ctrls.writePktSize::2                    0                       # Write request sizes (log2)
system.mem_ctrls.writePktSize::3                    0                       # Write request sizes (log2)
system.mem_ctrls.writePktSize::4                    0                       # Write request sizes (log2)
system.mem_ctrls.writePktSize::5                  658                       # Write request sizes (log2)
system.mem_ctrls.writePktSize::6                    0                       # Write request sizes (log2)
system.mem_ctrls.rdQLenPdf::0                   11972                       # What read queue length does an incoming req see
system.mem_ctrls.rdQLenPdf::1                     244                       # What read queue length does an incoming req see
system.mem_ctrls.rdQLenPdf::2                     238                       # What read queue length does an incoming req see
system.mem_ctrls.rdQLenPdf::3                       3                       # What read queue length does an incoming req see
system.mem_ctrls.rdQLenPdf::4                       0                       # What read queue length does an incoming req see
system.mem_ctrls.rdQLenPdf::5                       0                       # What read queue length does an incoming req see
system.mem_ctrls.rdQLenPdf::6                       0                       # What read queue length does an incoming req see
system.mem_ctrls.rdQLenPdf::7                       0                       # What read queue length does an incoming req see
system.mem_ctrls.rdQLenPdf::8                       0                       # What read queue length does an incoming req see
system.mem_ctrls.rdQLenPdf::9                       0                       # What read queue length does an incoming req see
system.mem_ctrls.rdQLenPdf::10                      0                       # What read queue length does an incoming req see
system.mem_ctrls.rdQLenPdf::11                      0                       # What read queue length does an incoming req see
system.mem_ctrls.rdQLenPdf::12                      0                       # What read queue length does an incoming req see
system.mem_ctrls.rdQLenPdf::13                      0                       # What read queue length does an incoming req see
system.mem_ctrls.rdQLenPdf::14                      0                       # What read queue length does an incoming req see
system.mem_ctrls.rdQLenPdf::15                      0                       # What read queue length does an incoming req see
system.mem_ctrls.rdQLenPdf::16                      0                       # What read queue length does an incoming req see
system.mem_ctrls.rdQLenPdf::17                      0                       # What read queue length does an incoming req see
system.mem_ctrls.rdQLenPdf::18                      0                       # What read queue length does an incoming req see
system.mem_ctrls.rdQLenPdf::19                      0                       # What read queue length does an incoming req see
system.mem_ctrls.rdQLenPdf::20                      0                       # What read queue length does an incoming req see
system.mem_ctrls.rdQLenPdf::21                      0                       # What read queue length does an incoming req see
system.mem_ctrls.rdQLenPdf::22                      0                       # What read queue length does an incoming req see
system.mem_ctrls.rdQLenPdf::23                      0                       # What read queue length does an incoming req see
system.mem_ctrls.rdQLenPdf::24                      0                       # What read queue length does an incoming req see
system.mem_ctrls.rdQLenPdf::25                      0                       # What read queue length does an incoming req see
system.mem_ctrls.rdQLenPdf::26                      0                       # What read queue length does an incoming req see
system.mem_ctrls.rdQLenPdf::27                      0                       # What read queue length does an incoming req see
system.mem_ctrls.rdQLenPdf::28                      0                       # What read queue length does an incoming req see
system.mem_ctrls.rdQLenPdf::29                      0                       # What read queue length does an incoming req see
system.mem_ctrls.rdQLenPdf::30                      0                       # What read queue length does an incoming req see
system.mem_ctrls.rdQLenPdf::31                      0                       # What read queue length does an incoming req see
system.mem_ctrls.wrQLenPdf::0                       1                       # What write queue length does an incoming req see
system.mem_ctrls.wrQLenPdf::1                       1                       # What write queue length does an incoming req see
system.mem_ctrls.wrQLenPdf::2                       1                       # What write queue length does an incoming req see
system.mem_ctrls.wrQLenPdf::3                       1                       # What write queue length does an incoming req see
system.mem_ctrls.wrQLenPdf::4                       1                       # What write queue length does an incoming req see
system.mem_ctrls.wrQLenPdf::5                       1                       # What write queue length does an incoming req see
system.mem_ctrls.wrQLenPdf::6                       1                       # What write queue length does an incoming req see
system.mem_ctrls.wrQLenPdf::7                       1                       # What write queue length does an incoming req see
system.mem_ctrls.wrQLenPdf::8                       1                       # What write queue length does an incoming req see
system.mem_ctrls.wrQLenPdf::9                       1                       # What write queue length does an incoming req see
system.mem_ctrls.wrQLenPdf::10                      1                       # What write queue length does an incoming req see
system.mem_ctrls.wrQLenPdf::11                      1                       # What write queue length does an incoming req see
system.mem_ctrls.wrQLenPdf::12                      1                       # What write queue length does an incoming req see
system.mem_ctrls.wrQLenPdf::13                      1                       # What write queue length does an incoming req see
system.mem_ctrls.wrQLenPdf::14                      1                       # What write queue length does an incoming req see
system.mem_ctrls.wrQLenPdf::15                      1                       # What write queue length does an incoming req see
system.mem_ctrls.wrQLenPdf::16                      1                       # What write queue length does an incoming req see
system.mem_ctrls.wrQLenPdf::17                      1                       # What write queue length does an incoming req see
system.mem_ctrls.wrQLenPdf::18                      1                       # What write queue length does an incoming req see
system.mem_ctrls.wrQLenPdf::19                      1                       # What write queue length does an incoming req see
system.mem_ctrls.wrQLenPdf::20                      1                       # What write queue length does an incoming req see
system.mem_ctrls.wrQLenPdf::21                      1                       # What write queue length does an incoming req see
system.mem_ctrls.wrQLenPdf::22                      1                       # What write queue length does an incoming req see
system.mem_ctrls.wrQLenPdf::23                      1                       # What write queue length does an incoming req see
system.mem_ctrls.wrQLenPdf::24                      1                       # What write queue length does an incoming req see
system.mem_ctrls.wrQLenPdf::25                      1                       # What write queue length does an incoming req see
system.mem_ctrls.wrQLenPdf::26                      0                       # What write queue length does an incoming req see
system.mem_ctrls.wrQLenPdf::27                      0                       # What write queue length does an incoming req see
system.mem_ctrls.wrQLenPdf::28                      0                       # What write queue length does an incoming req see
system.mem_ctrls.wrQLenPdf::29                      0                       # What write queue length does an incoming req see
system.mem_ctrls.wrQLenPdf::30                      0                       # What write queue length does an incoming req see
system.mem_ctrls.wrQLenPdf::31                      0                       # What write queue length does an incoming req see
system.mem_ctrls.wrQLenPdf::32                      0                       # What write queue length does an incoming req see
system.mem_ctrls.wrQLenPdf::33                      0                       # What write queue length does an incoming req see
system.mem_ctrls.wrQLenPdf::34                      0                       # What write queue length does an incoming req see
system.mem_ctrls.wrQLenPdf::35                      0                       # What write queue length does an incoming req see
system.mem_ctrls.wrQLenPdf::36                      0                       # What write queue length does an incoming req see
system.mem_ctrls.wrQLenPdf::37                      0                       # What write queue length does an incoming req see
system.mem_ctrls.wrQLenPdf::38                      0                       # What write queue length does an incoming req see
system.mem_ctrls.wrQLenPdf::39                      0                       # What write queue length does an incoming req see
system.mem_ctrls.wrQLenPdf::40                      0                       # What write queue length does an incoming req see
system.mem_ctrls.wrQLenPdf::41                      0                       # What write queue length does an incoming req see
system.mem_ctrls.wrQLenPdf::42                      0                       # What write queue length does an incoming req see
system.mem_ctrls.wrQLenPdf::43                      0                       # What write queue length does an incoming req see
system.mem_ctrls.wrQLenPdf::44                      0                       # What write queue length does an incoming req see
system.mem_ctrls.wrQLenPdf::45                      0                       # What write queue length does an incoming req see
system.mem_ctrls.wrQLenPdf::46                      0                       # What write queue length does an incoming req see
system.mem_ctrls.wrQLenPdf::47                      0                       # What write queue length does an incoming req see
system.mem_ctrls.wrQLenPdf::48                      0                       # What write queue length does an incoming req see
system.mem_ctrls.wrQLenPdf::49                      0                       # What write queue length does an incoming req see
system.mem_ctrls.wrQLenPdf::50                      0                       # What write queue length does an incoming req see
system.mem_ctrls.wrQLenPdf::51                      0                       # What write queue length does an incoming req see
system.mem_ctrls.wrQLenPdf::52                      0                       # What write queue length does an incoming req see
system.mem_ctrls.wrQLenPdf::53                      0                       # What write queue length does an incoming req see
system.mem_ctrls.wrQLenPdf::54                      0                       # What write queue length does an incoming req see
system.mem_ctrls.wrQLenPdf::55                      0                       # What write queue length does an incoming req see
system.mem_ctrls.wrQLenPdf::56                      0                       # What write queue length does an incoming req see
system.mem_ctrls.wrQLenPdf::57                      0                       # What write queue length does an incoming req see
system.mem_ctrls.wrQLenPdf::58                      0                       # What write queue length does an incoming req see
system.mem_ctrls.wrQLenPdf::59                      0                       # What write queue length does an incoming req see
system.mem_ctrls.wrQLenPdf::60                      0                       # What write queue length does an incoming req see
system.mem_ctrls.wrQLenPdf::61                      0                       # What write queue length does an incoming req see
system.mem_ctrls.wrQLenPdf::62                      0                       # What write queue length does an incoming req see
system.mem_ctrls.wrQLenPdf::63                      0                       # What write queue length does an incoming req see
system.mem_ctrls.bytesPerActivate::samples         3694                       # Bytes accessed per row activation
system.mem_ctrls.bytesPerActivate::mean    215.822415                       # Bytes accessed per row activation
system.mem_ctrls.bytesPerActivate::gmean   142.329355                       # Bytes accessed per row activation
system.mem_ctrls.bytesPerActivate::stdev   263.904378                       # Bytes accessed per row activation
system.mem_ctrls.bytesPerActivate::0-127         1037     28.07%     28.07% # Bytes accessed per row activation
system.mem_ctrls.bytesPerActivate::128-255         1974     53.44%     81.51% # Bytes accessed per row activation
system.mem_ctrls.bytesPerActivate::256-383          149      4.03%     85.54% # Bytes accessed per row activation
system.mem_ctrls.bytesPerActivate::384-511          104      2.82%     88.36% # Bytes accessed per row activation
system.mem_ctrls.bytesPerActivate::512-639           49      1.33%     89.69% # Bytes accessed per row activation
system.mem_ctrls.bytesPerActivate::640-767           55      1.49%     91.17% # Bytes accessed per row activation
system.mem_ctrls.bytesPerActivate::768-895           39      1.06%     92.23% # Bytes accessed per row activation
system.mem_ctrls.bytesPerActivate::896-1023           23      0.62%     92.85% # Bytes accessed per row activation
system.mem_ctrls.bytesPerActivate::1024-1151          264      7.15%    100.00% # Bytes accessed per row activation
system.mem_ctrls.bytesPerActivate::total         3694                       # Bytes accessed per row activation
system.mem_ctrls.totQLat                    399010750                       # Total ticks spent queuing
system.mem_ctrls.totMemAccLat               632579500                       # Total ticks spent from burst creation until serviced by the DRAM
system.mem_ctrls.totBusLat                   62285000                       # Total ticks spent in databus transfers
system.mem_ctrls.avgQLat                     32031.05                       # Average queueing delay per DRAM burst
system.mem_ctrls.avgBusLat                    5000.00                       # Average bus latency per DRAM burst
system.mem_ctrls.avgMemAccLat                50781.05                       # Average memory access latency per DRAM burst
system.mem_ctrls.avgRdBW                         0.83                       # Average DRAM read bandwidth in MiByte/s
system.mem_ctrls.avgWrBW                         0.00                       # Average achieved write bandwidth in MiByte/s
system.mem_ctrls.avgRdBWSys                      0.43                       # Average system read bandwidth in MiByte/s
system.mem_ctrls.avgWrBWSys                      0.02                       # Average system write bandwidth in MiByte/s
system.mem_ctrls.peakBW                      12800.00                       # Theoretical peak bandwidth in MiByte/s
system.mem_ctrls.busUtil                         0.01                       # Data bus utilization in percentage
system.mem_ctrls.busUtilRead                     0.01                       # Data bus utilization in percentage for reads
system.mem_ctrls.busUtilWrite                    0.00                       # Data bus utilization in percentage for writes
system.mem_ctrls.avgRdQLen                       1.00                       # Average read queue length when enqueuing
system.mem_ctrls.avgWrQLen                      25.29                       # Average write queue length when enqueuing
system.mem_ctrls.readRowHits                     8763                       # Number of row buffer hits during reads
system.mem_ctrls.writeRowHits                       0                       # Number of row buffer hits during writes
system.mem_ctrls.readRowHitRate                 70.35                       # Row buffer hit rate for reads
system.mem_ctrls.writeRowHitRate                 0.00                       # Row buffer hit rate for writes
system.mem_ctrls.avgGap                   71224000.93                       # Average gap between requests
system.mem_ctrls.pageHitRate                    70.20                       # Row buffer hit rate, read and write combined
system.mem_ctrls_0.actEnergy                 15093960                       # Energy for activate commands per rank (pJ)
system.mem_ctrls_0.preEnergy                  8022630                       # Energy for precharge commands per rank (pJ)
system.mem_ctrls_0.readEnergy                48216420                       # Energy for read commands per rank (pJ)
system.mem_ctrls_0.writeEnergy                      0                       # Energy for write commands per rank (pJ)
system.mem_ctrls_0.refreshEnergy         1087298160.000000                       # Energy for refresh commands per rank (pJ)
system.mem_ctrls_0.actBackEnergy            287717760                       # Energy for active background per rank (pJ)
system.mem_ctrls_0.preBackEnergy             58380480                       # Energy for precharge background per rank (pJ)
system.mem_ctrls_0.actPowerDownEnergy      2975747700                       # Energy for active power-down per rank (pJ)
system.mem_ctrls_0.prePowerDownEnergy      1430324640                       # Energy for precharge power-down per rank (pJ)
system.mem_ctrls_0.selfRefreshEnergy     227951924220                       # Energy for self refresh per rank (pJ)
system.mem_ctrls_0.totalEnergy           233862725970                       # Total energy per rank (pJ)
system.mem_ctrls_0.averagePower            243.616278                       # Core power per rank (mW)
system.mem_ctrls_0.totalIdleTime         956339342750                       # Total Idle time Per DRAM Rank
system.mem_ctrls_0.memoryStateTime::IDLE    106289500                       # Time in different power states
system.mem_ctrls_0.memoryStateTime::REF     462226000                       # Time in different power states
system.mem_ctrls_0.memoryStateTime::SREF 948929916750                       # Time in different power states
system.mem_ctrls_0.memoryStateTime::PRE_PDN   3724912250                       # Time in different power states
system.mem_ctrls_0.memoryStateTime::ACT     214355250                       # Time in different power states
system.mem_ctrls_0.memoryStateTime::ACT_PDN   6525764750                       # Time in different power states
system.mem_ctrls_1.actEnergy                 11281200                       # Energy for activate commands per rank (pJ)
system.mem_ctrls_1.preEnergy                  5996100                       # Energy for precharge commands per rank (pJ)
system.mem_ctrls_1.readEnergy                40726560                       # Energy for read commands per rank (pJ)
system.mem_ctrls_1.writeEnergy                      0                       # Energy for write commands per rank (pJ)
system.mem_ctrls_1.refreshEnergy         419184480.000000                       # Energy for refresh commands per rank (pJ)
system.mem_ctrls_1.actBackEnergy            151728300                       # Energy for active background per rank (pJ)
system.mem_ctrls_1.preBackEnergy             13043520                       # Energy for precharge background per rank (pJ)
system.mem_ctrls_1.actPowerDownEnergy      1680170760                       # Energy for active power-down per rank (pJ)
system.mem_ctrls_1.prePowerDownEnergy       374952480                       # Energy for precharge power-down per rank (pJ)
system.mem_ctrls_1.selfRefreshEnergy     229206114060                       # Energy for self refresh per rank (pJ)
system.mem_ctrls_1.totalEnergy           231903197460                       # Total energy per rank (pJ)
system.mem_ctrls_1.averagePower            241.575024                       # Core power per rank (mW)
system.mem_ctrls_1.totalIdleTime         157584141500                       # Total Idle time Per DRAM Rank
system.mem_ctrls_1.memoryStateTime::IDLE     15136000                       # Time in different power states
system.mem_ctrls_1.memoryStateTime::REF     177560000                       # Time in different power states
system.mem_ctrls_1.memoryStateTime::SREF 954935735750                       # Time in different power states
system.mem_ctrls_1.memoryStateTime::PRE_PDN    976617250                       # Time in different power states
system.mem_ctrls_1.memoryStateTime::ACT     173957000                       # Time in different power states
system.mem_ctrls_1.memoryStateTime::ACT_PDN   3684458500                       # Time in different power states
system.pwrStateResidencyTicks::UNDEFINED 959963464500                       # Cumulative time (in ticks) in various power states
system.cpu_voltage_domain.voltage                   1                       # Voltage in Volts
system.cpu_clk_domain.clock                       500                       # Clock period in ticks
system.cpu.dtb.walker.pwrStateResidencyTicks::UNDEFINED 959963464500                       # Cumulative time (in ticks) in various power states
system.cpu.apic_clk_domain.clock                 8000                       # Clock period in ticks
system.cpu.interrupts.pwrStateResidencyTicks::UNDEFINED 959963464500                       # Cumulative time (in ticks) in various power states
system.cpu.itb.walker.pwrStateResidencyTicks::UNDEFINED 959963464500                       # Cumulative time (in ticks) in various power states
system.cpu.workload.num_syscalls                   34                       # Number of system calls
system.cpu.pwrStateResidencyTicks::ON    959963464500                       # Cumulative time (in ticks) in various power states
system.cpu.numCycles                       1919926929                       # number of cpu cycles simulated
system.cpu.numWorkItemsStarted                      0                       # number of work items this cpu started
system.cpu.numWorkItemsCompleted                    0                       # number of work items this cpu completed
system.cpu.committedInsts                   500000000                       # Number of instructions committed
system.cpu.committedOps                     644780824                       # Number of ops (including micro ops) committed
system.cpu.num_int_alu_accesses             625781845                       # Number of integer alu accesses
system.cpu.num_fp_alu_accesses               27680885                       # Number of float alu accesses
system.cpu.num_func_calls                     1532449                       # number of times a function call or return occured
system.cpu.num_conditional_control_insts     25288260                       # number of instructions that are conditional controls
system.cpu.num_int_insts                    625781845                       # number of integer instructions
system.cpu.num_fp_insts                      27680885                       # number of float instructions
system.cpu.num_int_register_reads          1467255983                       # number of times the integer registers were read
system.cpu.num_int_register_writes          569426959                       # number of times the integer registers were written
system.cpu.num_fp_register_reads             21886167                       # number of times the floating registers were read
system.cpu.num_fp_register_writes            23676651                       # number of times the floating registers were written
system.cpu.num_cc_register_reads            187287140                       # number of times the CC registers were read
system.cpu.num_cc_register_writes           260710310                       # number of times the CC registers were written
system.cpu.num_mem_refs                     254811579                       # number of memory refs
system.cpu.num_load_insts                   219158147                       # Number of load instructions
system.cpu.num_store_insts                   35653432                       # Number of store instructions
system.cpu.num_idle_cycles                          0                       # Number of idle cycles
system.cpu.num_busy_cycles                 1919926929                       # Number of busy cycles
system.cpu.not_idle_fraction                        1                       # Percentage of non-idle cycles
system.cpu.idle_fraction                            0                       # Percentage of idle cycles
system.cpu.Branches                          27593151                       # Number of branches fetched
system.cpu.op_class::No_OpClass               1477149      0.23%      0.23% # Class of executed instruction
system.cpu.op_class::IntAlu                 363712896     56.41%     56.64% # Class of executed instruction
system.cpu.op_class::IntMult                   612864      0.10%     56.73% # Class of executed instruction
system.cpu.op_class::IntDiv                   6327906      0.98%     57.71% # Class of executed instruction
system.cpu.op_class::FloatAdd                17838430      2.77%     60.48% # Class of executed instruction
system.cpu.op_class::FloatCmp                       0      0.00%     60.48% # Class of executed instruction
system.cpu.op_class::FloatCvt                       0      0.00%     60.48% # Class of executed instruction
system.cpu.op_class::FloatMult                      0      0.00%     60.48% # Class of executed instruction
system.cpu.op_class::FloatDiv                       0      0.00%     60.48% # Class of executed instruction
system.cpu.op_class::FloatSqrt                      0      0.00%     60.48% # Class of executed instruction
system.cpu.op_class::SimdAdd                        0      0.00%     60.48% # Class of executed instruction
system.cpu.op_class::SimdAddAcc                     0      0.00%     60.48% # Class of executed instruction
system.cpu.op_class::SimdAlu                        0      0.00%     60.48% # Class of executed instruction
system.cpu.op_class::SimdCmp                        0      0.00%     60.48% # Class of executed instruction
system.cpu.op_class::SimdCvt                        0      0.00%     60.48% # Class of executed instruction
system.cpu.op_class::SimdMisc                       0      0.00%     60.48% # Class of executed instruction
system.cpu.op_class::SimdMult                       0      0.00%     60.48% # Class of executed instruction
system.cpu.op_class::SimdMultAcc                    0      0.00%     60.48% # Class of executed instruction
system.cpu.op_class::SimdShift                      0      0.00%     60.48% # Class of executed instruction
system.cpu.op_class::SimdShiftAcc                   0      0.00%     60.48% # Class of executed instruction
system.cpu.op_class::SimdSqrt                       0      0.00%     60.48% # Class of executed instruction
system.cpu.op_class::SimdFloatAdd                   0      0.00%     60.48% # Class of executed instruction
system.cpu.op_class::SimdFloatAlu                   0      0.00%     60.48% # Class of executed instruction
system.cpu.op_class::SimdFloatCmp                   0      0.00%     60.48% # Class of executed instruction
system.cpu.op_class::SimdFloatCvt                   0      0.00%     60.48% # Class of executed instruction
system.cpu.op_class::SimdFloatDiv                   0      0.00%     60.48% # Class of executed instruction
system.cpu.op_class::SimdFloatMisc                  0      0.00%     60.48% # Class of executed instruction
system.cpu.op_class::SimdFloatMult                  0      0.00%     60.48% # Class of executed instruction
system.cpu.op_class::SimdFloatMultAcc               0      0.00%     60.48% # Class of executed instruction
system.cpu.op_class::SimdFloatSqrt                  0      0.00%     60.48% # Class of executed instruction
system.cpu.op_class::MemRead                219158147     33.99%     94.47% # Class of executed instruction
system.cpu.op_class::MemWrite                35653432      5.53%    100.00% # Class of executed instruction
system.cpu.op_class::IprAccess                      0      0.00%    100.00% # Class of executed instruction
system.cpu.op_class::InstPrefetch                   0      0.00%    100.00% # Class of executed instruction
system.cpu.op_class::total                  644780824                       # Class of executed instruction
system.cpu.dcache.tags.pwrStateResidencyTicks::UNDEFINED 959963464500                       # Cumulative time (in ticks) in various power states
system.cpu.dcache.tags.replacements            662934                       # number of replacements
system.cpu.dcache.tags.tagsinuse          2045.902253                       # Cycle average of tags in use
system.cpu.dcache.tags.total_refs           254148239                       # Total number of references to valid blocks.
system.cpu.dcache.tags.sampled_refs            664982                       # Sample count of references to valid blocks.
system.cpu.dcache.tags.avg_refs            382.188148                       # Average number of references to valid blocks.
system.cpu.dcache.tags.warmup_cycle        4119740500                       # Cycle when the warmup percentage was hit.
system.cpu.dcache.tags.occ_blocks::cpu.data  2045.902253                       # Average occupied blocks per requestor
system.cpu.dcache.tags.occ_percent::cpu.data     0.998976                       # Average percentage of cache occupancy
system.cpu.dcache.tags.occ_percent::total     0.998976                       # Average percentage of cache occupancy
system.cpu.dcache.tags.occ_task_id_blocks::1024         2048                       # Occupied blocks per task id
system.cpu.dcache.tags.age_task_id_blocks_1024::0            7                       # Occupied blocks per task id
system.cpu.dcache.tags.age_task_id_blocks_1024::1           73                       # Occupied blocks per task id
system.cpu.dcache.tags.age_task_id_blocks_1024::2          854                       # Occupied blocks per task id
system.cpu.dcache.tags.age_task_id_blocks_1024::3          724                       # Occupied blocks per task id
system.cpu.dcache.tags.age_task_id_blocks_1024::4          390                       # Occupied blocks per task id
system.cpu.dcache.tags.occ_task_id_percent::1024            1                       # Percentage of cache occupancy per task id
system.cpu.dcache.tags.tag_accesses         510291424                       # Number of tag accesses
system.cpu.dcache.tags.data_accesses        510291424                       # Number of data accesses
system.cpu.dcache.pwrStateResidencyTicks::UNDEFINED 959963464500                       # Cumulative time (in ticks) in various power states
system.cpu.dcache.ReadReq_hits::cpu.data    219016580                       # number of ReadReq hits
system.cpu.dcache.ReadReq_hits::total       219016580                       # number of ReadReq hits
system.cpu.dcache.WriteReq_hits::cpu.data     35131657                       # number of WriteReq hits
system.cpu.dcache.WriteReq_hits::total       35131657                       # number of WriteReq hits
system.cpu.dcache.SoftPFReq_hits::cpu.data            2                       # number of SoftPFReq hits
system.cpu.dcache.SoftPFReq_hits::total             2                       # number of SoftPFReq hits
system.cpu.dcache.demand_hits::cpu.data     254148237                       # number of demand (read+write) hits
system.cpu.dcache.demand_hits::total        254148237                       # number of demand (read+write) hits
system.cpu.dcache.overall_hits::cpu.data    254148239                       # number of overall hits
system.cpu.dcache.overall_hits::total       254148239                       # number of overall hits
system.cpu.dcache.ReadReq_misses::cpu.data       140890                       # number of ReadReq misses
system.cpu.dcache.ReadReq_misses::total        140890                       # number of ReadReq misses
system.cpu.dcache.WriteReq_misses::cpu.data       521870                       # number of WriteReq misses
system.cpu.dcache.WriteReq_misses::total       521870                       # number of WriteReq misses
system.cpu.dcache.SoftPFReq_misses::cpu.data         2222                       # number of SoftPFReq misses
system.cpu.dcache.SoftPFReq_misses::total         2222                       # number of SoftPFReq misses
system.cpu.dcache.demand_misses::cpu.data       662760                       # number of demand (read+write) misses
system.cpu.dcache.demand_misses::total         662760                       # number of demand (read+write) misses
system.cpu.dcache.overall_misses::cpu.data       664982                       # number of overall misses
system.cpu.dcache.overall_misses::total        664982                       # number of overall misses
system.cpu.dcache.ReadReq_miss_latency::cpu.data   1934484500                       # number of ReadReq miss cycles
system.cpu.dcache.ReadReq_miss_latency::total   1934484500                       # number of ReadReq miss cycles
system.cpu.dcache.WriteReq_miss_latency::cpu.data   7399034500                       # number of WriteReq miss cycles
system.cpu.dcache.WriteReq_miss_latency::total   7399034500                       # number of WriteReq miss cycles
system.cpu.dcache.demand_miss_latency::cpu.data   9333519000                       # number of demand (read+write) miss cycles
system.cpu.dcache.demand_miss_latency::total   9333519000                       # number of demand (read+write) miss cycles
system.cpu.dcache.overall_miss_latency::cpu.data   9333519000                       # number of overall miss cycles
system.cpu.dcache.overall_miss_latency::total   9333519000                       # number of overall miss cycles
system.cpu.dcache.ReadReq_accesses::cpu.data    219157470                       # number of ReadReq accesses(hits+misses)
system.cpu.dcache.ReadReq_accesses::total    219157470                       # number of ReadReq accesses(hits+misses)
system.cpu.dcache.WriteReq_accesses::cpu.data     35653527                       # number of WriteReq accesses(hits+misses)
system.cpu.dcache.WriteReq_accesses::total     35653527                       # number of WriteReq accesses(hits+misses)
system.cpu.dcache.SoftPFReq_accesses::cpu.data         2224                       # number of SoftPFReq accesses(hits+misses)
system.cpu.dcache.SoftPFReq_accesses::total         2224                       # number of SoftPFReq accesses(hits+misses)
system.cpu.dcache.demand_accesses::cpu.data    254810997                       # number of demand (read+write) accesses
system.cpu.dcache.demand_accesses::total    254810997                       # number of demand (read+write) accesses
system.cpu.dcache.overall_accesses::cpu.data    254813221                       # number of overall (read+write) accesses
system.cpu.dcache.overall_accesses::total    254813221                       # number of overall (read+write) accesses
system.cpu.dcache.ReadReq_miss_rate::cpu.data     0.000643                       # miss rate for ReadReq accesses
system.cpu.dcache.ReadReq_miss_rate::total     0.000643                       # miss rate for ReadReq accesses
system.cpu.dcache.WriteReq_miss_rate::cpu.data     0.014637                       # miss rate for WriteReq accesses
system.cpu.dcache.WriteReq_miss_rate::total     0.014637                       # miss rate for WriteReq accesses
system.cpu.dcache.SoftPFReq_miss_rate::cpu.data     0.999101                       # miss rate for SoftPFReq accesses
system.cpu.dcache.SoftPFReq_miss_rate::total     0.999101                       # miss rate for SoftPFReq accesses
system.cpu.dcache.demand_miss_rate::cpu.data     0.002601                       # miss rate for demand accesses
system.cpu.dcache.demand_miss_rate::total     0.002601                       # miss rate for demand accesses
system.cpu.dcache.overall_miss_rate::cpu.data     0.002610                       # miss rate for overall accesses
system.cpu.dcache.overall_miss_rate::total     0.002610                       # miss rate for overall accesses
system.cpu.dcache.ReadReq_avg_miss_latency::cpu.data 13730.459933                       # average ReadReq miss latency
system.cpu.dcache.ReadReq_avg_miss_latency::total 13730.459933                       # average ReadReq miss latency
system.cpu.dcache.WriteReq_avg_miss_latency::cpu.data 14177.926495                       # average WriteReq miss latency
system.cpu.dcache.WriteReq_avg_miss_latency::total 14177.926495                       # average WriteReq miss latency
system.cpu.dcache.demand_avg_miss_latency::cpu.data 14082.803730                       # average overall miss latency
system.cpu.dcache.demand_avg_miss_latency::total 14082.803730                       # average overall miss latency
system.cpu.dcache.overall_avg_miss_latency::cpu.data 14035.746832                       # average overall miss latency
system.cpu.dcache.overall_avg_miss_latency::total 14035.746832                       # average overall miss latency
system.cpu.dcache.blocked_cycles::no_mshrs         1622                       # number of cycles access was blocked
system.cpu.dcache.blocked_cycles::no_targets            0                       # number of cycles access was blocked
system.cpu.dcache.blocked::no_mshrs                 5                       # number of cycles access was blocked
system.cpu.dcache.blocked::no_targets               0                       # number of cycles access was blocked
system.cpu.dcache.avg_blocked_cycles::no_mshrs   324.400000                       # average number of cycles each access was blocked
system.cpu.dcache.avg_blocked_cycles::no_targets          nan                       # average number of cycles each access was blocked
system.cpu.dcache.writebacks::writebacks       656101                       # number of writebacks
system.cpu.dcache.writebacks::total            656101                       # number of writebacks
system.cpu.dcache.ReadReq_mshr_misses::cpu.data       140890                       # number of ReadReq MSHR misses
system.cpu.dcache.ReadReq_mshr_misses::total       140890                       # number of ReadReq MSHR misses
system.cpu.dcache.WriteReq_mshr_misses::cpu.data       521870                       # number of WriteReq MSHR misses
system.cpu.dcache.WriteReq_mshr_misses::total       521870                       # number of WriteReq MSHR misses
system.cpu.dcache.SoftPFReq_mshr_misses::cpu.data         2222                       # number of SoftPFReq MSHR misses
system.cpu.dcache.SoftPFReq_mshr_misses::total         2222                       # number of SoftPFReq MSHR misses
system.cpu.dcache.demand_mshr_misses::cpu.data       662760                       # number of demand (read+write) MSHR misses
system.cpu.dcache.demand_mshr_misses::total       662760                       # number of demand (read+write) MSHR misses
system.cpu.dcache.overall_mshr_misses::cpu.data       664982                       # number of overall MSHR misses
system.cpu.dcache.overall_mshr_misses::total       664982                       # number of overall MSHR misses
system.cpu.dcache.ReadReq_mshr_miss_latency::cpu.data   1793594500                       # number of ReadReq MSHR miss cycles
system.cpu.dcache.ReadReq_mshr_miss_latency::total   1793594500                       # number of ReadReq MSHR miss cycles
system.cpu.dcache.WriteReq_mshr_miss_latency::cpu.data   6877164500                       # number of WriteReq MSHR miss cycles
system.cpu.dcache.WriteReq_mshr_miss_latency::total   6877164500                       # number of WriteReq MSHR miss cycles
system.cpu.dcache.SoftPFReq_mshr_miss_latency::cpu.data     66155000                       # number of SoftPFReq MSHR miss cycles
system.cpu.dcache.SoftPFReq_mshr_miss_latency::total     66155000                       # number of SoftPFReq MSHR miss cycles
system.cpu.dcache.demand_mshr_miss_latency::cpu.data   8670759000                       # number of demand (read+write) MSHR miss cycles
system.cpu.dcache.demand_mshr_miss_latency::total   8670759000                       # number of demand (read+write) MSHR miss cycles
system.cpu.dcache.overall_mshr_miss_latency::cpu.data   8736914000                       # number of overall MSHR miss cycles
system.cpu.dcache.overall_mshr_miss_latency::total   8736914000                       # number of overall MSHR miss cycles
system.cpu.dcache.ReadReq_mshr_miss_rate::cpu.data     0.000643                       # mshr miss rate for ReadReq accesses
system.cpu.dcache.ReadReq_mshr_miss_rate::total     0.000643                       # mshr miss rate for ReadReq accesses
system.cpu.dcache.WriteReq_mshr_miss_rate::cpu.data     0.014637                       # mshr miss rate for WriteReq accesses
system.cpu.dcache.WriteReq_mshr_miss_rate::total     0.014637                       # mshr miss rate for WriteReq accesses
system.cpu.dcache.SoftPFReq_mshr_miss_rate::cpu.data     0.999101                       # mshr miss rate for SoftPFReq accesses
system.cpu.dcache.SoftPFReq_mshr_miss_rate::total     0.999101                       # mshr miss rate for SoftPFReq accesses
system.cpu.dcache.demand_mshr_miss_rate::cpu.data     0.002601                       # mshr miss rate for demand accesses
system.cpu.dcache.demand_mshr_miss_rate::total     0.002601                       # mshr miss rate for demand accesses
system.cpu.dcache.overall_mshr_miss_rate::cpu.data     0.002610                       # mshr miss rate for overall accesses
system.cpu.dcache.overall_mshr_miss_rate::total     0.002610                       # mshr miss rate for overall accesses
system.cpu.dcache.ReadReq_avg_mshr_miss_latency::cpu.data 12730.459933                       # average ReadReq mshr miss latency
system.cpu.dcache.ReadReq_avg_mshr_miss_latency::total 12730.459933                       # average ReadReq mshr miss latency
system.cpu.dcache.WriteReq_avg_mshr_miss_latency::cpu.data 13177.926495                       # average WriteReq mshr miss latency
system.cpu.dcache.WriteReq_avg_mshr_miss_latency::total 13177.926495                       # average WriteReq mshr miss latency
system.cpu.dcache.SoftPFReq_avg_mshr_miss_latency::cpu.data 29772.727273                       # average SoftPFReq mshr miss latency
system.cpu.dcache.SoftPFReq_avg_mshr_miss_latency::total 29772.727273                       # average SoftPFReq mshr miss latency
system.cpu.dcache.demand_avg_mshr_miss_latency::cpu.data 13082.803730                       # average overall mshr miss latency
system.cpu.dcache.demand_avg_mshr_miss_latency::total 13082.803730                       # average overall mshr miss latency
system.cpu.dcache.overall_avg_mshr_miss_latency::cpu.data 13138.572172                       # average overall mshr miss latency
system.cpu.dcache.overall_avg_mshr_miss_latency::total 13138.572172                       # average overall mshr miss latency
system.cpu.dtb_walker_cache.tags.pwrStateResidencyTicks::UNDEFINED 959963464500                       # Cumulative time (in ticks) in various power states
system.cpu.dtb_walker_cache.tags.replacements            0                       # number of replacements
system.cpu.dtb_walker_cache.tags.tagsinuse            0                       # Cycle average of tags in use
system.cpu.dtb_walker_cache.tags.total_refs            0                       # Total number of references to valid blocks.
system.cpu.dtb_walker_cache.tags.sampled_refs            0                       # Sample count of references to valid blocks.
system.cpu.dtb_walker_cache.tags.avg_refs          nan                       # Average number of references to valid blocks.
system.cpu.dtb_walker_cache.tags.warmup_cycle            0                       # Cycle when the warmup percentage was hit.
system.cpu.dtb_walker_cache.tags.tag_accesses            0                       # Number of tag accesses
system.cpu.dtb_walker_cache.tags.data_accesses            0                       # Number of data accesses
system.cpu.dtb_walker_cache.pwrStateResidencyTicks::UNDEFINED 959963464500                       # Cumulative time (in ticks) in various power states
system.cpu.dtb_walker_cache.blocked_cycles::no_mshrs            0                       # number of cycles access was blocked
system.cpu.dtb_walker_cache.blocked_cycles::no_targets            0                       # number of cycles access was blocked
system.cpu.dtb_walker_cache.blocked::no_mshrs            0                       # number of cycles access was blocked
system.cpu.dtb_walker_cache.blocked::no_targets            0                       # number of cycles access was blocked
system.cpu.dtb_walker_cache.avg_blocked_cycles::no_mshrs          nan                       # average number of cycles each access was blocked
system.cpu.dtb_walker_cache.avg_blocked_cycles::no_targets          nan                       # average number of cycles each access was blocked
system.cpu.icache.tags.pwrStateResidencyTicks::UNDEFINED 959963464500                       # Cumulative time (in ticks) in various power states
system.cpu.icache.tags.replacements              6519                       # number of replacements
system.cpu.icache.tags.tagsinuse          1697.319096                       # Cycle average of tags in use
system.cpu.icache.tags.total_refs           695985013                       # Total number of references to valid blocks.
system.cpu.icache.tags.sampled_refs              8217                       # Sample count of references to valid blocks.
system.cpu.icache.tags.avg_refs          84700.622247                       # Average number of references to valid blocks.
system.cpu.icache.tags.warmup_cycle                 0                       # Cycle when the warmup percentage was hit.
system.cpu.icache.tags.occ_blocks::cpu.inst  1697.319096                       # Average occupied blocks per requestor
system.cpu.icache.tags.occ_percent::cpu.inst     0.828769                       # Average percentage of cache occupancy
system.cpu.icache.tags.occ_percent::total     0.828769                       # Average percentage of cache occupancy
system.cpu.icache.tags.occ_task_id_blocks::1024         1698                       # Occupied blocks per task id
system.cpu.icache.tags.age_task_id_blocks_1024::3           12                       # Occupied blocks per task id
system.cpu.icache.tags.age_task_id_blocks_1024::4         1686                       # Occupied blocks per task id
system.cpu.icache.tags.occ_task_id_percent::1024     0.829102                       # Percentage of cache occupancy per task id
system.cpu.icache.tags.tag_accesses        1391994677                       # Number of tag accesses
system.cpu.icache.tags.data_accesses       1391994677                       # Number of data accesses
system.cpu.icache.pwrStateResidencyTicks::UNDEFINED 959963464500                       # Cumulative time (in ticks) in various power states
system.cpu.icache.ReadReq_hits::cpu.inst    695985013                       # number of ReadReq hits
system.cpu.icache.ReadReq_hits::total       695985013                       # number of ReadReq hits
system.cpu.icache.demand_hits::cpu.inst     695985013                       # number of demand (read+write) hits
system.cpu.icache.demand_hits::total        695985013                       # number of demand (read+write) hits
system.cpu.icache.overall_hits::cpu.inst    695985013                       # number of overall hits
system.cpu.icache.overall_hits::total       695985013                       # number of overall hits
system.cpu.icache.ReadReq_misses::cpu.inst         8217                       # number of ReadReq misses
system.cpu.icache.ReadReq_misses::total          8217                       # number of ReadReq misses
system.cpu.icache.demand_misses::cpu.inst         8217                       # number of demand (read+write) misses
system.cpu.icache.demand_misses::total           8217                       # number of demand (read+write) misses
system.cpu.icache.overall_misses::cpu.inst         8217                       # number of overall misses
system.cpu.icache.overall_misses::total          8217                       # number of overall misses
system.cpu.icache.ReadReq_miss_latency::cpu.inst    494505000                       # number of ReadReq miss cycles
system.cpu.icache.ReadReq_miss_latency::total    494505000                       # number of ReadReq miss cycles
system.cpu.icache.demand_miss_latency::cpu.inst    494505000                       # number of demand (read+write) miss cycles
system.cpu.icache.demand_miss_latency::total    494505000                       # number of demand (read+write) miss cycles
system.cpu.icache.overall_miss_latency::cpu.inst    494505000                       # number of overall miss cycles
system.cpu.icache.overall_miss_latency::total    494505000                       # number of overall miss cycles
system.cpu.icache.ReadReq_accesses::cpu.inst    695993230                       # number of ReadReq accesses(hits+misses)
system.cpu.icache.ReadReq_accesses::total    695993230                       # number of ReadReq accesses(hits+misses)
system.cpu.icache.demand_accesses::cpu.inst    695993230                       # number of demand (read+write) accesses
system.cpu.icache.demand_accesses::total    695993230                       # number of demand (read+write) accesses
system.cpu.icache.overall_accesses::cpu.inst    695993230                       # number of overall (read+write) accesses
system.cpu.icache.overall_accesses::total    695993230                       # number of overall (read+write) accesses
system.cpu.icache.ReadReq_miss_rate::cpu.inst     0.000012                       # miss rate for ReadReq accesses
system.cpu.icache.ReadReq_miss_rate::total     0.000012                       # miss rate for ReadReq accesses
system.cpu.icache.demand_miss_rate::cpu.inst     0.000012                       # miss rate for demand accesses
system.cpu.icache.demand_miss_rate::total     0.000012                       # miss rate for demand accesses
system.cpu.icache.overall_miss_rate::cpu.inst     0.000012                       # miss rate for overall accesses
system.cpu.icache.overall_miss_rate::total     0.000012                       # miss rate for overall accesses
system.cpu.icache.ReadReq_avg_miss_latency::cpu.inst 60180.722892                       # average ReadReq miss latency
system.cpu.icache.ReadReq_avg_miss_latency::total 60180.722892                       # average ReadReq miss latency
system.cpu.icache.demand_avg_miss_latency::cpu.inst 60180.722892                       # average overall miss latency
system.cpu.icache.demand_avg_miss_latency::total 60180.722892                       # average overall miss latency
system.cpu.icache.overall_avg_miss_latency::cpu.inst 60180.722892                       # average overall miss latency
system.cpu.icache.overall_avg_miss_latency::total 60180.722892                       # average overall miss latency
system.cpu.icache.blocked_cycles::no_mshrs            0                       # number of cycles access was blocked
system.cpu.icache.blocked_cycles::no_targets            0                       # number of cycles access was blocked
system.cpu.icache.blocked::no_mshrs                 0                       # number of cycles access was blocked
system.cpu.icache.blocked::no_targets               0                       # number of cycles access was blocked
system.cpu.icache.avg_blocked_cycles::no_mshrs          nan                       # average number of cycles each access was blocked
system.cpu.icache.avg_blocked_cycles::no_targets          nan                       # average number of cycles each access was blocked
system.cpu.icache.writebacks::writebacks         6519                       # number of writebacks
system.cpu.icache.writebacks::total              6519                       # number of writebacks
system.cpu.icache.ReadReq_mshr_misses::cpu.inst         8217                       # number of ReadReq MSHR misses
system.cpu.icache.ReadReq_mshr_misses::total         8217                       # number of ReadReq MSHR misses
system.cpu.icache.demand_mshr_misses::cpu.inst         8217                       # number of demand (read+write) MSHR misses
system.cpu.icache.demand_mshr_misses::total         8217                       # number of demand (read+write) MSHR misses
system.cpu.icache.overall_mshr_misses::cpu.inst         8217                       # number of overall MSHR misses
system.cpu.icache.overall_mshr_misses::total         8217                       # number of overall MSHR misses
system.cpu.icache.ReadReq_mshr_miss_latency::cpu.inst    486288000                       # number of ReadReq MSHR miss cycles
system.cpu.icache.ReadReq_mshr_miss_latency::total    486288000                       # number of ReadReq MSHR miss cycles
system.cpu.icache.demand_mshr_miss_latency::cpu.inst    486288000                       # number of demand (read+write) MSHR miss cycles
system.cpu.icache.demand_mshr_miss_latency::total    486288000                       # number of demand (read+write) MSHR miss cycles
system.cpu.icache.overall_mshr_miss_latency::cpu.inst    486288000                       # number of overall MSHR miss cycles
system.cpu.icache.overall_mshr_miss_latency::total    486288000                       # number of overall MSHR miss cycles
system.cpu.icache.ReadReq_mshr_miss_rate::cpu.inst     0.000012                       # mshr miss rate for ReadReq accesses
system.cpu.icache.ReadReq_mshr_miss_rate::total     0.000012                       # mshr miss rate for ReadReq accesses
system.cpu.icache.demand_mshr_miss_rate::cpu.inst     0.000012                       # mshr miss rate for demand accesses
system.cpu.icache.demand_mshr_miss_rate::total     0.000012                       # mshr miss rate for demand accesses
system.cpu.icache.overall_mshr_miss_rate::cpu.inst     0.000012                       # mshr miss rate for overall accesses
system.cpu.icache.overall_mshr_miss_rate::total     0.000012                       # mshr miss rate for overall accesses
system.cpu.icache.ReadReq_avg_mshr_miss_latency::cpu.inst 59180.722892                       # average ReadReq mshr miss latency
system.cpu.icache.ReadReq_avg_mshr_miss_latency::total 59180.722892                       # average ReadReq mshr miss latency
system.cpu.icache.demand_avg_mshr_miss_latency::cpu.inst 59180.722892                       # average overall mshr miss latency
system.cpu.icache.demand_avg_mshr_miss_latency::total 59180.722892                       # average overall mshr miss latency
system.cpu.icache.overall_avg_mshr_miss_latency::cpu.inst 59180.722892                       # average overall mshr miss latency
system.cpu.icache.overall_avg_mshr_miss_latency::total 59180.722892                       # average overall mshr miss latency
system.cpu.itb_walker_cache.tags.pwrStateResidencyTicks::UNDEFINED 959963464500                       # Cumulative time (in ticks) in various power states
system.cpu.itb_walker_cache.tags.replacements            0                       # number of replacements
system.cpu.itb_walker_cache.tags.tagsinuse            0                       # Cycle average of tags in use
system.cpu.itb_walker_cache.tags.total_refs            0                       # Total number of references to valid blocks.
system.cpu.itb_walker_cache.tags.sampled_refs            0                       # Sample count of references to valid blocks.
system.cpu.itb_walker_cache.tags.avg_refs          nan                       # Average number of references to valid blocks.
system.cpu.itb_walker_cache.tags.warmup_cycle            0                       # Cycle when the warmup percentage was hit.
system.cpu.itb_walker_cache.tags.tag_accesses            0                       # Number of tag accesses
system.cpu.itb_walker_cache.tags.data_accesses            0                       # Number of data accesses
system.cpu.itb_walker_cache.pwrStateResidencyTicks::UNDEFINED 959963464500                       # Cumulative time (in ticks) in various power states
system.cpu.itb_walker_cache.blocked_cycles::no_mshrs            0                       # number of cycles access was blocked
system.cpu.itb_walker_cache.blocked_cycles::no_targets            0                       # number of cycles access was blocked
system.cpu.itb_walker_cache.blocked::no_mshrs            0                       # number of cycles access was blocked
system.cpu.itb_walker_cache.blocked::no_targets            0                       # number of cycles access was blocked
system.cpu.itb_walker_cache.avg_blocked_cycles::no_mshrs          nan                       # average number of cycles each access was blocked
system.cpu.itb_walker_cache.avg_blocked_cycles::no_targets          nan                       # average number of cycles each access was blocked
system.l2.tags.pwrStateResidencyTicks::UNDEFINED 959963464500                       # Cumulative time (in ticks) in various power states
system.l2.tags.replacements                      3259                       # number of replacements
system.l2.tags.tagsinuse                 10864.655284                       # Cycle average of tags in use
system.l2.tags.total_refs                     1328395                       # Total number of references to valid blocks.
system.l2.tags.sampled_refs                     14202                       # Sample count of references to valid blocks.
system.l2.tags.avg_refs                     93.535770                       # Average number of references to valid blocks.
system.l2.tags.warmup_cycle                         0                       # Cycle when the warmup percentage was hit.
system.l2.tags.occ_blocks::writebacks       87.576219                       # Average occupied blocks per requestor
system.l2.tags.occ_blocks::cpu.inst       1894.561176                       # Average occupied blocks per requestor
system.l2.tags.occ_blocks::cpu.data       8882.517889                       # Average occupied blocks per requestor
system.l2.tags.occ_percent::writebacks       0.002673                       # Average percentage of cache occupancy
system.l2.tags.occ_percent::cpu.inst         0.057817                       # Average percentage of cache occupancy
system.l2.tags.occ_percent::cpu.data         0.271073                       # Average percentage of cache occupancy
system.l2.tags.occ_percent::total            0.331563                       # Average percentage of cache occupancy
system.l2.tags.occ_task_id_blocks::1024         10943                       # Occupied blocks per task id
system.l2.tags.age_task_id_blocks_1024::3            2                       # Occupied blocks per task id
system.l2.tags.age_task_id_blocks_1024::4        10941                       # Occupied blocks per task id
system.l2.tags.occ_task_id_percent::1024     0.333954                       # Percentage of cache occupancy per task id
system.l2.tags.tag_accesses                   1356854                       # Number of tag accesses
system.l2.tags.data_accesses                  1356854                       # Number of data accesses
system.l2.pwrStateResidencyTicks::UNDEFINED 959963464500                       # Cumulative time (in ticks) in various power states
system.l2.WritebackDirty_hits::writebacks       656101                       # number of WritebackDirty hits
system.l2.WritebackDirty_hits::total           656101                       # number of WritebackDirty hits
system.l2.WritebackClean_hits::writebacks         6519                       # number of WritebackClean hits
system.l2.WritebackClean_hits::total             6519                       # number of WritebackClean hits
system.l2.ReadExReq_hits::cpu.data             513814                       # number of ReadExReq hits
system.l2.ReadExReq_hits::total                513814                       # number of ReadExReq hits
system.l2.ReadCleanReq_hits::cpu.inst            5220                       # number of ReadCleanReq hits
system.l2.ReadCleanReq_hits::total               5220                       # number of ReadCleanReq hits
system.l2.ReadSharedReq_hits::cpu.data         141385                       # number of ReadSharedReq hits
system.l2.ReadSharedReq_hits::total            141385                       # number of ReadSharedReq hits
system.l2.demand_hits::cpu.inst                  5220                       # number of demand (read+write) hits
system.l2.demand_hits::cpu.data                655199                       # number of demand (read+write) hits
system.l2.demand_hits::total                   660419                       # number of demand (read+write) hits
system.l2.overall_hits::cpu.inst                 5220                       # number of overall hits
system.l2.overall_hits::cpu.data               655199                       # number of overall hits
system.l2.overall_hits::total                  660419                       # number of overall hits
system.l2.ReadExReq_misses::cpu.data             8056                       # number of ReadExReq misses
system.l2.ReadExReq_misses::total                8056                       # number of ReadExReq misses
system.l2.ReadCleanReq_misses::cpu.inst          2997                       # number of ReadCleanReq misses
system.l2.ReadCleanReq_misses::total             2997                       # number of ReadCleanReq misses
system.l2.ReadSharedReq_misses::cpu.data         1727                       # number of ReadSharedReq misses
system.l2.ReadSharedReq_misses::total            1727                       # number of ReadSharedReq misses
system.l2.demand_misses::cpu.inst                2997                       # number of demand (read+write) misses
system.l2.demand_misses::cpu.data                9783                       # number of demand (read+write) misses
system.l2.demand_misses::total                  12780                       # number of demand (read+write) misses
system.l2.overall_misses::cpu.inst               2997                       # number of overall misses
system.l2.overall_misses::cpu.data               9783                       # number of overall misses
system.l2.overall_misses::total                 12780                       # number of overall misses
system.l2.ReadExReq_miss_latency::cpu.data    699311500                       # number of ReadExReq miss cycles
system.l2.ReadExReq_miss_latency::total     699311500                       # number of ReadExReq miss cycles
system.l2.ReadCleanReq_miss_latency::cpu.inst    419152500                       # number of ReadCleanReq miss cycles
system.l2.ReadCleanReq_miss_latency::total    419152500                       # number of ReadCleanReq miss cycles
system.l2.ReadSharedReq_miss_latency::cpu.data    160539000                       # number of ReadSharedReq miss cycles
system.l2.ReadSharedReq_miss_latency::total    160539000                       # number of ReadSharedReq miss cycles
system.l2.demand_miss_latency::cpu.inst     419152500                       # number of demand (read+write) miss cycles
system.l2.demand_miss_latency::cpu.data     859850500                       # number of demand (read+write) miss cycles
system.l2.demand_miss_latency::total       1279003000                       # number of demand (read+write) miss cycles
system.l2.overall_miss_latency::cpu.inst    419152500                       # number of overall miss cycles
system.l2.overall_miss_latency::cpu.data    859850500                       # number of overall miss cycles
system.l2.overall_miss_latency::total      1279003000                       # number of overall miss cycles
system.l2.WritebackDirty_accesses::writebacks       656101                       # number of WritebackDirty accesses(hits+misses)
system.l2.WritebackDirty_accesses::total       656101                       # number of WritebackDirty accesses(hits+misses)
system.l2.WritebackClean_accesses::writebacks         6519                       # number of WritebackClean accesses(hits+misses)
system.l2.WritebackClean_accesses::total         6519                       # number of WritebackClean accesses(hits+misses)
system.l2.ReadExReq_accesses::cpu.data         521870                       # number of ReadExReq accesses(hits+misses)
system.l2.ReadExReq_accesses::total            521870                       # number of ReadExReq accesses(hits+misses)
system.l2.ReadCleanReq_accesses::cpu.inst         8217                       # number of ReadCleanReq accesses(hits+misses)
system.l2.ReadCleanReq_accesses::total           8217                       # number of ReadCleanReq accesses(hits+misses)
system.l2.ReadSharedReq_accesses::cpu.data       143112                       # number of ReadSharedReq accesses(hits+misses)
system.l2.ReadSharedReq_accesses::total        143112                       # number of ReadSharedReq accesses(hits+misses)
system.l2.demand_accesses::cpu.inst              8217                       # number of demand (read+write) accesses
system.l2.demand_accesses::cpu.data            664982                       # number of demand (read+write) accesses
system.l2.demand_accesses::total               673199                       # number of demand (read+write) accesses
system.l2.overall_accesses::cpu.inst             8217                       # number of overall (read+write) accesses
system.l2.overall_accesses::cpu.data           664982                       # number of overall (read+write) accesses
system.l2.overall_accesses::total              673199                       # number of overall (read+write) accesses
system.l2.ReadExReq_miss_rate::cpu.data      0.015437                       # miss rate for ReadExReq accesses
system.l2.ReadExReq_miss_rate::total         0.015437                       # miss rate for ReadExReq accesses
system.l2.ReadCleanReq_miss_rate::cpu.inst     0.364732                       # miss rate for ReadCleanReq accesses
system.l2.ReadCleanReq_miss_rate::total      0.364732                       # miss rate for ReadCleanReq accesses
system.l2.ReadSharedReq_miss_rate::cpu.data     0.012067                       # miss rate for ReadSharedReq accesses
system.l2.ReadSharedReq_miss_rate::total     0.012067                       # miss rate for ReadSharedReq accesses
system.l2.demand_miss_rate::cpu.inst         0.364732                       # miss rate for demand accesses
system.l2.demand_miss_rate::cpu.data         0.014712                       # miss rate for demand accesses
system.l2.demand_miss_rate::total            0.018984                       # miss rate for demand accesses
system.l2.overall_miss_rate::cpu.inst        0.364732                       # miss rate for overall accesses
system.l2.overall_miss_rate::cpu.data        0.014712                       # miss rate for overall accesses
system.l2.overall_miss_rate::total           0.018984                       # miss rate for overall accesses
system.l2.ReadExReq_avg_miss_latency::cpu.data 86806.293446                       # average ReadExReq miss latency
system.l2.ReadExReq_avg_miss_latency::total 86806.293446                       # average ReadExReq miss latency
system.l2.ReadCleanReq_avg_miss_latency::cpu.inst 139857.357357                       # average ReadCleanReq miss latency
system.l2.ReadCleanReq_avg_miss_latency::total 139857.357357                       # average ReadCleanReq miss latency
system.l2.ReadSharedReq_avg_miss_latency::cpu.data 92958.309207                       # average ReadSharedReq miss latency
system.l2.ReadSharedReq_avg_miss_latency::total 92958.309207                       # average ReadSharedReq miss latency
system.l2.demand_avg_miss_latency::cpu.inst 139857.357357                       # average overall miss latency
system.l2.demand_avg_miss_latency::cpu.data 87892.313196                       # average overall miss latency
system.l2.demand_avg_miss_latency::total 100078.482003                       # average overall miss latency
system.l2.overall_avg_miss_latency::cpu.inst 139857.357357                       # average overall miss latency
system.l2.overall_avg_miss_latency::cpu.data 87892.313196                       # average overall miss latency
system.l2.overall_avg_miss_latency::total 100078.482003                       # average overall miss latency
system.l2.blocked_cycles::no_mshrs                  0                       # number of cycles access was blocked
system.l2.blocked_cycles::no_targets                0                       # number of cycles access was blocked
system.l2.blocked::no_mshrs                         0                       # number of cycles access was blocked
system.l2.blocked::no_targets                       0                       # number of cycles access was blocked
system.l2.avg_blocked_cycles::no_mshrs            nan                       # average number of cycles each access was blocked
system.l2.avg_blocked_cycles::no_targets          nan                       # average number of cycles each access was blocked
system.l2.writebacks::writebacks                  658                       # number of writebacks
system.l2.writebacks::total                       658                       # number of writebacks
system.l2.CleanEvict_mshr_misses::writebacks           55                       # number of CleanEvict MSHR misses
system.l2.CleanEvict_mshr_misses::total            55                       # number of CleanEvict MSHR misses
system.l2.ReadExReq_mshr_misses::cpu.data         8056                       # number of ReadExReq MSHR misses
system.l2.ReadExReq_mshr_misses::total           8056                       # number of ReadExReq MSHR misses
system.l2.ReadCleanReq_mshr_misses::cpu.inst         2997                       # number of ReadCleanReq MSHR misses
system.l2.ReadCleanReq_mshr_misses::total         2997                       # number of ReadCleanReq MSHR misses
system.l2.ReadSharedReq_mshr_misses::cpu.data         1727                       # number of ReadSharedReq MSHR misses
system.l2.ReadSharedReq_mshr_misses::total         1727                       # number of ReadSharedReq MSHR misses
system.l2.demand_mshr_misses::cpu.inst           2997                       # number of demand (read+write) MSHR misses
system.l2.demand_mshr_misses::cpu.data           9783                       # number of demand (read+write) MSHR misses
system.l2.demand_mshr_misses::total             12780                       # number of demand (read+write) MSHR misses
system.l2.overall_mshr_misses::cpu.inst          2997                       # number of overall MSHR misses
system.l2.overall_mshr_misses::cpu.data          9783                       # number of overall MSHR misses
system.l2.overall_mshr_misses::total            12780                       # number of overall MSHR misses
system.l2.ReadExReq_mshr_miss_latency::cpu.data    618751500                       # number of ReadExReq MSHR miss cycles
system.l2.ReadExReq_mshr_miss_latency::total    618751500                       # number of ReadExReq MSHR miss cycles
system.l2.ReadCleanReq_mshr_miss_latency::cpu.inst    389182500                       # number of ReadCleanReq MSHR miss cycles
system.l2.ReadCleanReq_mshr_miss_latency::total    389182500                       # number of ReadCleanReq MSHR miss cycles
system.l2.ReadSharedReq_mshr_miss_latency::cpu.data    143269000                       # number of ReadSharedReq MSHR miss cycles
system.l2.ReadSharedReq_mshr_miss_latency::total    143269000                       # number of ReadSharedReq MSHR miss cycles
system.l2.demand_mshr_miss_latency::cpu.inst    389182500                       # number of demand (read+write) MSHR miss cycles
system.l2.demand_mshr_miss_latency::cpu.data    762020500                       # number of demand (read+write) MSHR miss cycles
system.l2.demand_mshr_miss_latency::total   1151203000                       # number of demand (read+write) MSHR miss cycles
system.l2.overall_mshr_miss_latency::cpu.inst    389182500                       # number of overall MSHR miss cycles
system.l2.overall_mshr_miss_latency::cpu.data    762020500                       # number of overall MSHR miss cycles
system.l2.overall_mshr_miss_latency::total   1151203000                       # number of overall MSHR miss cycles
system.l2.CleanEvict_mshr_miss_rate::writebacks          inf                       # mshr miss rate for CleanEvict accesses
system.l2.CleanEvict_mshr_miss_rate::total          inf                       # mshr miss rate for CleanEvict accesses
system.l2.ReadExReq_mshr_miss_rate::cpu.data     0.015437                       # mshr miss rate for ReadExReq accesses
system.l2.ReadExReq_mshr_miss_rate::total     0.015437                       # mshr miss rate for ReadExReq accesses
system.l2.ReadCleanReq_mshr_miss_rate::cpu.inst     0.364732                       # mshr miss rate for ReadCleanReq accesses
system.l2.ReadCleanReq_mshr_miss_rate::total     0.364732                       # mshr miss rate for ReadCleanReq accesses
system.l2.ReadSharedReq_mshr_miss_rate::cpu.data     0.012067                       # mshr miss rate for ReadSharedReq accesses
system.l2.ReadSharedReq_mshr_miss_rate::total     0.012067                       # mshr miss rate for ReadSharedReq accesses
system.l2.demand_mshr_miss_rate::cpu.inst     0.364732                       # mshr miss rate for demand accesses
system.l2.demand_mshr_miss_rate::cpu.data     0.014712                       # mshr miss rate for demand accesses
system.l2.demand_mshr_miss_rate::total       0.018984                       # mshr miss rate for demand accesses
system.l2.overall_mshr_miss_rate::cpu.inst     0.364732                       # mshr miss rate for overall accesses
system.l2.overall_mshr_miss_rate::cpu.data     0.014712                       # mshr miss rate for overall accesses
system.l2.overall_mshr_miss_rate::total      0.018984                       # mshr miss rate for overall accesses
system.l2.ReadExReq_avg_mshr_miss_latency::cpu.data 76806.293446                       # average ReadExReq mshr miss latency
system.l2.ReadExReq_avg_mshr_miss_latency::total 76806.293446                       # average ReadExReq mshr miss latency
system.l2.ReadCleanReq_avg_mshr_miss_latency::cpu.inst 129857.357357                       # average ReadCleanReq mshr miss latency
system.l2.ReadCleanReq_avg_mshr_miss_latency::total 129857.357357                       # average ReadCleanReq mshr miss latency
system.l2.ReadSharedReq_avg_mshr_miss_latency::cpu.data 82958.309207                       # average ReadSharedReq mshr miss latency
system.l2.ReadSharedReq_avg_mshr_miss_latency::total 82958.309207                       # average ReadSharedReq mshr miss latency
system.l2.demand_avg_mshr_miss_latency::cpu.inst 129857.357357                       # average overall mshr miss latency
system.l2.demand_avg_mshr_miss_latency::cpu.data 77892.313196                       # average overall mshr miss latency
system.l2.demand_avg_mshr_miss_latency::total 90078.482003                       # average overall mshr miss latency
system.l2.overall_avg_mshr_miss_latency::cpu.inst 129857.357357                       # average overall mshr miss latency
system.l2.overall_avg_mshr_miss_latency::cpu.data 77892.313196                       # average overall mshr miss latency
system.l2.overall_avg_mshr_miss_latency::total 90078.482003                       # average overall mshr miss latency
system.membus.snoop_filter.tot_requests         14340                       # Total number of requests made to the snoop filter.
system.membus.snoop_filter.hit_single_requests         1560                       # Number of requests hitting in the snoop filter with a single holder of the requested data.
system.membus.snoop_filter.hit_multi_requests            0                       # Number of requests hitting in the snoop filter with multiple (>1) holders of the requested data.
system.membus.snoop_filter.tot_snoops               0                       # Total number of snoops made to the snoop filter.
system.membus.snoop_filter.hit_single_snoops            0                       # Number of snoops hitting in the snoop filter with a single holder of the requested data.
system.membus.snoop_filter.hit_multi_snoops            0                       # Number of snoops hitting in the snoop filter with multiple (>1) holders of the requested data.
system.membus.pwrStateResidencyTicks::UNDEFINED 959963464500                       # Cumulative time (in ticks) in various power states
system.membus.trans_dist::ReadResp               4724                       # Transaction distribution
system.membus.trans_dist::WritebackDirty          658                       # Transaction distribution
system.membus.trans_dist::CleanEvict              902                       # Transaction distribution
system.membus.trans_dist::ReadExReq              8056                       # Transaction distribution
system.membus.trans_dist::ReadExResp             8056                       # Transaction distribution
system.membus.trans_dist::ReadSharedReq          4724                       # Transaction distribution
system.membus.pkt_count_system.l2.mem_side::system.mem_ctrls.port        27120                       # Packet count per connected master and slave (bytes)
system.membus.pkt_count_system.l2.mem_side::total        27120                       # Packet count per connected master and slave (bytes)
system.membus.pkt_count::total                  27120                       # Packet count per connected master and slave (bytes)
system.membus.pkt_size_system.l2.mem_side::system.mem_ctrls.port       430016                       # Cumulative packet size per connected master and slave (bytes)
system.membus.pkt_size_system.l2.mem_side::total       430016                       # Cumulative packet size per connected master and slave (bytes)
system.membus.pkt_size::total                  430016                       # Cumulative packet size per connected master and slave (bytes)
system.membus.snoops                                0                       # Total snoops (count)
system.membus.snoopTraffic                          0                       # Total snoop traffic (bytes)
system.membus.snoop_fanout::samples             12780                       # Request fanout histogram
system.membus.snoop_fanout::mean                    0                       # Request fanout histogram
system.membus.snoop_fanout::stdev                   0                       # Request fanout histogram
system.membus.snoop_fanout::underflows              0      0.00%      0.00% # Request fanout histogram
system.membus.snoop_fanout::0                   12780    100.00%    100.00% # Request fanout histogram
system.membus.snoop_fanout::1                       0      0.00%    100.00% # Request fanout histogram
system.membus.snoop_fanout::overflows               0      0.00%    100.00% # Request fanout histogram
system.membus.snoop_fanout::min_value               0                       # Request fanout histogram
system.membus.snoop_fanout::max_value               0                       # Request fanout histogram
system.membus.snoop_fanout::total               12780                       # Request fanout histogram
system.membus.reqLayer2.occupancy            15770000                       # Layer occupancy (ticks)
system.membus.reqLayer2.utilization               0.0                       # Layer utilization (%)
system.membus.respLayer1.occupancy           42489500                       # Layer occupancy (ticks)
system.membus.respLayer1.utilization              0.0                       # Layer utilization (%)
system.tol2bus.snoop_filter.tot_requests      1342652                       # Total number of requests made to the snoop filter.
system.tol2bus.snoop_filter.hit_single_requests       669453                       # Number of requests hitting in the snoop filter with a single holder of the requested data.
system.tol2bus.snoop_filter.hit_multi_requests            0                       # Number of requests hitting in the snoop filter with multiple (>1) holders of the requested data.
system.tol2bus.snoop_filter.tot_snoops           1754                       # Total number of snoops made to the snoop filter.
system.tol2bus.snoop_filter.hit_single_snoops         1754                       # Number of snoops hitting in the snoop filter with a single holder of the requested data.
system.tol2bus.snoop_filter.hit_multi_snoops            0                       # Number of snoops hitting in the snoop filter with multiple (>1) holders of the requested data.
system.tol2bus.pwrStateResidencyTicks::UNDEFINED 959963464500                       # Cumulative time (in ticks) in various power states
system.tol2bus.trans_dist::ReadResp            151329                       # Transaction distribution
system.tol2bus.trans_dist::WritebackDirty       656759                       # Transaction distribution
system.tol2bus.trans_dist::WritebackClean         6519                       # Transaction distribution
system.tol2bus.trans_dist::CleanEvict            9434                       # Transaction distribution
system.tol2bus.trans_dist::ReadExReq           521870                       # Transaction distribution
system.tol2bus.trans_dist::ReadExResp          521870                       # Transaction distribution
system.tol2bus.trans_dist::ReadCleanReq          8217                       # Transaction distribution
system.tol2bus.trans_dist::ReadSharedReq       143112                       # Transaction distribution
system.tol2bus.pkt_count_system.cpu.icache.mem_side::system.l2.cpu_side        22953                       # Packet count per connected master and slave (bytes)
system.tol2bus.pkt_count_system.cpu.dcache.mem_side::system.l2.cpu_side      1992898                       # Packet count per connected master and slave (bytes)
system.tol2bus.pkt_count::total               2015851                       # Packet count per connected master and slave (bytes)
system.tol2bus.pkt_size_system.cpu.icache.mem_side::system.l2.cpu_side       471552                       # Cumulative packet size per connected master and slave (bytes)
system.tol2bus.pkt_size_system.cpu.dcache.mem_side::system.l2.cpu_side     42274656                       # Cumulative packet size per connected master and slave (bytes)
system.tol2bus.pkt_size::total               42746208                       # Cumulative packet size per connected master and slave (bytes)
system.tol2bus.snoops                            3259                       # Total snoops (count)
system.tol2bus.snoopTraffic                     21056                       # Total snoop traffic (bytes)
system.tol2bus.snoop_fanout::samples           676458                       # Request fanout histogram
system.tol2bus.snoop_fanout::mean            0.002593                       # Request fanout histogram
system.tol2bus.snoop_fanout::stdev           0.050855                       # Request fanout histogram
system.tol2bus.snoop_fanout::underflows             0      0.00%      0.00% # Request fanout histogram
system.tol2bus.snoop_fanout::0                 674704     99.74%     99.74% # Request fanout histogram
system.tol2bus.snoop_fanout::1                   1754      0.26%    100.00% # Request fanout histogram
system.tol2bus.snoop_fanout::2                      0      0.00%    100.00% # Request fanout histogram
system.tol2bus.snoop_fanout::3                      0      0.00%    100.00% # Request fanout histogram
system.tol2bus.snoop_fanout::4                      0      0.00%    100.00% # Request fanout histogram
system.tol2bus.snoop_fanout::overflows              0      0.00%    100.00% # Request fanout histogram
system.tol2bus.snoop_fanout::min_value              0                       # Request fanout histogram
system.tol2bus.snoop_fanout::max_value              1                       # Request fanout histogram
system.tol2bus.snoop_fanout::total             676458                       # Request fanout histogram
system.tol2bus.reqLayer0.occupancy         1002636000                       # Layer occupancy (ticks)
system.tol2bus.reqLayer0.utilization              0.1                       # Layer utilization (%)
system.tol2bus.respLayer0.occupancy           8217000                       # Layer occupancy (ticks)
system.tol2bus.respLayer0.utilization             0.0                       # Layer utilization (%)
system.tol2bus.respLayer1.occupancy         664982000                       # Layer occupancy (ticks)
system.tol2bus.respLayer1.utilization             0.1                       # Layer utilization (%)

---------- End Simulation Statistics   ----------
