
---------- Begin Simulation Statistics ----------
sim_seconds                                  1.997858                       # Number of seconds simulated
sim_ticks                                1997858182500                       # Number of ticks simulated
final_tick                               1997858182500                       # Number of ticks from beginning of simulation (restored from checkpoints and never reset)
sim_freq                                 1000000000000                       # Frequency of simulated ticks
host_inst_rate                                 304406                       # Simulator instruction rate (inst/s)
host_op_rate                                   533510                       # Simulator op (including micro ops) rate (op/s)
host_tick_rate                             1216318927                       # Simulator tick rate (ticks/s)
host_mem_usage                                 600120                       # Number of bytes of host memory used
host_seconds                                  1642.54                       # Real time elapsed on the host
sim_insts                                   500000000                       # Number of instructions simulated
sim_ops                                     876313781                       # Number of ops (including micro ops) simulated
system.voltage_domain.voltage                       1                       # Voltage in Volts
system.clk_domain.clock                          1000                       # Clock period in ticks
system.mem_ctrls.pwrStateResidencyTicks::UNDEFINED 1997858182500                       # Cumulative time (in ticks) in various power states
system.mem_ctrls.bytes_read::cpu.inst           37728                       # Number of bytes read from this memory
system.mem_ctrls.bytes_read::cpu.data       319694976                       # Number of bytes read from this memory
system.mem_ctrls.bytes_read::total          319732704                       # Number of bytes read from this memory
system.mem_ctrls.bytes_inst_read::cpu.inst        37728                       # Number of instructions bytes read from this memory
system.mem_ctrls.bytes_inst_read::total         37728                       # Number of instructions bytes read from this memory
system.mem_ctrls.bytes_written::writebacks     39439584                       # Number of bytes written to this memory
system.mem_ctrls.bytes_written::total        39439584                       # Number of bytes written to this memory
system.mem_ctrls.num_reads::cpu.inst             1179                       # Number of read requests responded to by this memory
system.mem_ctrls.num_reads::cpu.data          9990468                       # Number of read requests responded to by this memory
system.mem_ctrls.num_reads::total             9991647                       # Number of read requests responded to by this memory
system.mem_ctrls.num_writes::writebacks       1232487                       # Number of write requests responded to by this memory
system.mem_ctrls.num_writes::total            1232487                       # Number of write requests responded to by this memory
system.mem_ctrls.bw_read::cpu.inst              18884                       # Total read bandwidth from this memory (bytes/s)
system.mem_ctrls.bw_read::cpu.data          160018854                       # Total read bandwidth from this memory (bytes/s)
system.mem_ctrls.bw_read::total             160037738                       # Total read bandwidth from this memory (bytes/s)
system.mem_ctrls.bw_inst_read::cpu.inst         18884                       # Instruction read bandwidth from this memory (bytes/s)
system.mem_ctrls.bw_inst_read::total            18884                       # Instruction read bandwidth from this memory (bytes/s)
system.mem_ctrls.bw_write::writebacks        19740933                       # Write bandwidth from this memory (bytes/s)
system.mem_ctrls.bw_write::total             19740933                       # Write bandwidth from this memory (bytes/s)
system.mem_ctrls.bw_total::writebacks        19740933                       # Total bandwidth to/from this memory (bytes/s)
system.mem_ctrls.bw_total::cpu.inst             18884                       # Total bandwidth to/from this memory (bytes/s)
system.mem_ctrls.bw_total::cpu.data         160018854                       # Total bandwidth to/from this memory (bytes/s)
system.mem_ctrls.bw_total::total            179778671                       # Total bandwidth to/from this memory (bytes/s)
system.mem_ctrls.readReqs                     9991647                       # Number of read requests accepted
system.mem_ctrls.writeReqs                    1232487                       # Number of write requests accepted
system.mem_ctrls.readBursts                   9991647                       # Number of DRAM read bursts, including those serviced by the write queue
system.mem_ctrls.writeBursts                  1232487                       # Number of DRAM write bursts, including those merged in the write queue
system.mem_ctrls.bytesReadDRAM              639152000                       # Total number of bytes read from DRAM
system.mem_ctrls.bytesReadWrQ                  313408                       # Total number of bytes read from write queue
system.mem_ctrls.bytesWritten                74942016                       # Total number of bytes written to DRAM
system.mem_ctrls.bytesReadSys               319732704                       # Total read bytes from the system interface side
system.mem_ctrls.bytesWrittenSys             39439584                       # Total written bytes from the system interface side
system.mem_ctrls.servicedByWrQ                   4897                       # Number of DRAM read bursts serviced by the write queue
system.mem_ctrls.mergedWrBursts                 61491                       # Number of DRAM write bursts merged with an existing one
system.mem_ctrls.neitherReadNorWriteReqs            0                       # Number of requests that are neither read nor write
system.mem_ctrls.perBankRdBursts::0            640723                       # Per bank write bursts
system.mem_ctrls.perBankRdBursts::1            621142                       # Per bank write bursts
system.mem_ctrls.perBankRdBursts::2            622624                       # Per bank write bursts
system.mem_ctrls.perBankRdBursts::3            632833                       # Per bank write bursts
system.mem_ctrls.perBankRdBursts::4            610850                       # Per bank write bursts
system.mem_ctrls.perBankRdBursts::5            615868                       # Per bank write bursts
system.mem_ctrls.perBankRdBursts::6            619750                       # Per bank write bursts
system.mem_ctrls.perBankRdBursts::7            611595                       # Per bank write bursts
system.mem_ctrls.perBankRdBursts::8            620184                       # Per bank write bursts
system.mem_ctrls.perBankRdBursts::9            615493                       # Per bank write bursts
system.mem_ctrls.perBankRdBursts::10           615230                       # Per bank write bursts
system.mem_ctrls.perBankRdBursts::11           623786                       # Per bank write bursts
system.mem_ctrls.perBankRdBursts::12           632672                       # Per bank write bursts
system.mem_ctrls.perBankRdBursts::13           637716                       # Per bank write bursts
system.mem_ctrls.perBankRdBursts::14           631598                       # Per bank write bursts
system.mem_ctrls.perBankRdBursts::15           634686                       # Per bank write bursts
system.mem_ctrls.perBankWrBursts::0             75534                       # Per bank write bursts
system.mem_ctrls.perBankWrBursts::1             74460                       # Per bank write bursts
system.mem_ctrls.perBankWrBursts::2             74492                       # Per bank write bursts
system.mem_ctrls.perBankWrBursts::3             79528                       # Per bank write bursts
system.mem_ctrls.perBankWrBursts::4             72183                       # Per bank write bursts
system.mem_ctrls.perBankWrBursts::5             69857                       # Per bank write bursts
system.mem_ctrls.perBankWrBursts::6             71813                       # Per bank write bursts
system.mem_ctrls.perBankWrBursts::7             69402                       # Per bank write bursts
system.mem_ctrls.perBankWrBursts::8             71000                       # Per bank write bursts
system.mem_ctrls.perBankWrBursts::9             69563                       # Per bank write bursts
system.mem_ctrls.perBankWrBursts::10            69450                       # Per bank write bursts
system.mem_ctrls.perBankWrBursts::11            72883                       # Per bank write bursts
system.mem_ctrls.perBankWrBursts::12            75279                       # Per bank write bursts
system.mem_ctrls.perBankWrBursts::13            75379                       # Per bank write bursts
system.mem_ctrls.perBankWrBursts::14            74919                       # Per bank write bursts
system.mem_ctrls.perBankWrBursts::15            75227                       # Per bank write bursts
system.mem_ctrls.numRdRetry                         0                       # Number of times read queue was full causing retry
system.mem_ctrls.numWrRetry                         0                       # Number of times write queue was full causing retry
system.mem_ctrls.totGap                  1997840891500                       # Total gap between requests
system.mem_ctrls.readPktSize::0                     0                       # Read request sizes (log2)
system.mem_ctrls.readPktSize::1                     0                       # Read request sizes (log2)
system.mem_ctrls.readPktSize::2                     0                       # Read request sizes (log2)
system.mem_ctrls.readPktSize::3                     0                       # Read request sizes (log2)
system.mem_ctrls.readPktSize::4                     0                       # Read request sizes (log2)
system.mem_ctrls.readPktSize::5               9991647                       # Read request sizes (log2)
system.mem_ctrls.readPktSize::6                     0                       # Read request sizes (log2)
system.mem_ctrls.writePktSize::0                    0                       # Write request sizes (log2)
system.mem_ctrls.writePktSize::1                    0                       # Write request sizes (log2)
system.mem_ctrls.writePktSize::2                    0                       # Write request sizes (log2)
system.mem_ctrls.writePktSize::3                    0                       # Write request sizes (log2)
system.mem_ctrls.writePktSize::4                    0                       # Write request sizes (log2)
system.mem_ctrls.writePktSize::5              1232487                       # Write request sizes (log2)
system.mem_ctrls.writePktSize::6                    0                       # Write request sizes (log2)
system.mem_ctrls.rdQLenPdf::0                 9986750                       # What read queue length does an incoming req see
system.mem_ctrls.rdQLenPdf::1                       0                       # What read queue length does an incoming req see
system.mem_ctrls.rdQLenPdf::2                       0                       # What read queue length does an incoming req see
system.mem_ctrls.rdQLenPdf::3                       0                       # What read queue length does an incoming req see
system.mem_ctrls.rdQLenPdf::4                       0                       # What read queue length does an incoming req see
system.mem_ctrls.rdQLenPdf::5                       0                       # What read queue length does an incoming req see
system.mem_ctrls.rdQLenPdf::6                       0                       # What read queue length does an incoming req see
system.mem_ctrls.rdQLenPdf::7                       0                       # What read queue length does an incoming req see
system.mem_ctrls.rdQLenPdf::8                       0                       # What read queue length does an incoming req see
system.mem_ctrls.rdQLenPdf::9                       0                       # What read queue length does an incoming req see
system.mem_ctrls.rdQLenPdf::10                      0                       # What read queue length does an incoming req see
system.mem_ctrls.rdQLenPdf::11                      0                       # What read queue length does an incoming req see
system.mem_ctrls.rdQLenPdf::12                      0                       # What read queue length does an incoming req see
system.mem_ctrls.rdQLenPdf::13                      0                       # What read queue length does an incoming req see
system.mem_ctrls.rdQLenPdf::14                      0                       # What read queue length does an incoming req see
system.mem_ctrls.rdQLenPdf::15                      0                       # What read queue length does an incoming req see
system.mem_ctrls.rdQLenPdf::16                      0                       # What read queue length does an incoming req see
system.mem_ctrls.rdQLenPdf::17                      0                       # What read queue length does an incoming req see
system.mem_ctrls.rdQLenPdf::18                      0                       # What read queue length does an incoming req see
system.mem_ctrls.rdQLenPdf::19                      0                       # What read queue length does an incoming req see
system.mem_ctrls.rdQLenPdf::20                      0                       # What read queue length does an incoming req see
system.mem_ctrls.rdQLenPdf::21                      0                       # What read queue length does an incoming req see
system.mem_ctrls.rdQLenPdf::22                      0                       # What read queue length does an incoming req see
system.mem_ctrls.rdQLenPdf::23                      0                       # What read queue length does an incoming req see
system.mem_ctrls.rdQLenPdf::24                      0                       # What read queue length does an incoming req see
system.mem_ctrls.rdQLenPdf::25                      0                       # What read queue length does an incoming req see
system.mem_ctrls.rdQLenPdf::26                      0                       # What read queue length does an incoming req see
system.mem_ctrls.rdQLenPdf::27                      0                       # What read queue length does an incoming req see
system.mem_ctrls.rdQLenPdf::28                      0                       # What read queue length does an incoming req see
system.mem_ctrls.rdQLenPdf::29                      0                       # What read queue length does an incoming req see
system.mem_ctrls.rdQLenPdf::30                      0                       # What read queue length does an incoming req see
system.mem_ctrls.rdQLenPdf::31                      0                       # What read queue length does an incoming req see
system.mem_ctrls.wrQLenPdf::0                       1                       # What write queue length does an incoming req see
system.mem_ctrls.wrQLenPdf::1                       1                       # What write queue length does an incoming req see
system.mem_ctrls.wrQLenPdf::2                       1                       # What write queue length does an incoming req see
system.mem_ctrls.wrQLenPdf::3                       1                       # What write queue length does an incoming req see
system.mem_ctrls.wrQLenPdf::4                       1                       # What write queue length does an incoming req see
system.mem_ctrls.wrQLenPdf::5                       1                       # What write queue length does an incoming req see
system.mem_ctrls.wrQLenPdf::6                       1                       # What write queue length does an incoming req see
system.mem_ctrls.wrQLenPdf::7                       1                       # What write queue length does an incoming req see
system.mem_ctrls.wrQLenPdf::8                       1                       # What write queue length does an incoming req see
system.mem_ctrls.wrQLenPdf::9                       1                       # What write queue length does an incoming req see
system.mem_ctrls.wrQLenPdf::10                      1                       # What write queue length does an incoming req see
system.mem_ctrls.wrQLenPdf::11                      1                       # What write queue length does an incoming req see
system.mem_ctrls.wrQLenPdf::12                      1                       # What write queue length does an incoming req see
system.mem_ctrls.wrQLenPdf::13                      1                       # What write queue length does an incoming req see
system.mem_ctrls.wrQLenPdf::14                      1                       # What write queue length does an incoming req see
system.mem_ctrls.wrQLenPdf::15                  17339                       # What write queue length does an incoming req see
system.mem_ctrls.wrQLenPdf::16                  18668                       # What write queue length does an incoming req see
system.mem_ctrls.wrQLenPdf::17                  70916                       # What write queue length does an incoming req see
system.mem_ctrls.wrQLenPdf::18                  70936                       # What write queue length does an incoming req see
system.mem_ctrls.wrQLenPdf::19                  70936                       # What write queue length does an incoming req see
system.mem_ctrls.wrQLenPdf::20                  70937                       # What write queue length does an incoming req see
system.mem_ctrls.wrQLenPdf::21                  70937                       # What write queue length does an incoming req see
system.mem_ctrls.wrQLenPdf::22                  70936                       # What write queue length does an incoming req see
system.mem_ctrls.wrQLenPdf::23                  70936                       # What write queue length does an incoming req see
system.mem_ctrls.wrQLenPdf::24                  70938                       # What write queue length does an incoming req see
system.mem_ctrls.wrQLenPdf::25                  70936                       # What write queue length does an incoming req see
system.mem_ctrls.wrQLenPdf::26                  70937                       # What write queue length does an incoming req see
system.mem_ctrls.wrQLenPdf::27                  70938                       # What write queue length does an incoming req see
system.mem_ctrls.wrQLenPdf::28                  70935                       # What write queue length does an incoming req see
system.mem_ctrls.wrQLenPdf::29                  70941                       # What write queue length does an incoming req see
system.mem_ctrls.wrQLenPdf::30                  70944                       # What write queue length does an incoming req see
system.mem_ctrls.wrQLenPdf::31                  70936                       # What write queue length does an incoming req see
system.mem_ctrls.wrQLenPdf::32                  70935                       # What write queue length does an incoming req see
system.mem_ctrls.wrQLenPdf::33                      0                       # What write queue length does an incoming req see
system.mem_ctrls.wrQLenPdf::34                      0                       # What write queue length does an incoming req see
system.mem_ctrls.wrQLenPdf::35                      0                       # What write queue length does an incoming req see
system.mem_ctrls.wrQLenPdf::36                      0                       # What write queue length does an incoming req see
system.mem_ctrls.wrQLenPdf::37                      0                       # What write queue length does an incoming req see
system.mem_ctrls.wrQLenPdf::38                      0                       # What write queue length does an incoming req see
system.mem_ctrls.wrQLenPdf::39                      0                       # What write queue length does an incoming req see
system.mem_ctrls.wrQLenPdf::40                      0                       # What write queue length does an incoming req see
system.mem_ctrls.wrQLenPdf::41                      0                       # What write queue length does an incoming req see
system.mem_ctrls.wrQLenPdf::42                      0                       # What write queue length does an incoming req see
system.mem_ctrls.wrQLenPdf::43                      0                       # What write queue length does an incoming req see
system.mem_ctrls.wrQLenPdf::44                      0                       # What write queue length does an incoming req see
system.mem_ctrls.wrQLenPdf::45                      0                       # What write queue length does an incoming req see
system.mem_ctrls.wrQLenPdf::46                      0                       # What write queue length does an incoming req see
system.mem_ctrls.wrQLenPdf::47                      0                       # What write queue length does an incoming req see
system.mem_ctrls.wrQLenPdf::48                      0                       # What write queue length does an incoming req see
system.mem_ctrls.wrQLenPdf::49                      0                       # What write queue length does an incoming req see
system.mem_ctrls.wrQLenPdf::50                      0                       # What write queue length does an incoming req see
system.mem_ctrls.wrQLenPdf::51                      0                       # What write queue length does an incoming req see
system.mem_ctrls.wrQLenPdf::52                      0                       # What write queue length does an incoming req see
system.mem_ctrls.wrQLenPdf::53                      0                       # What write queue length does an incoming req see
system.mem_ctrls.wrQLenPdf::54                      0                       # What write queue length does an incoming req see
system.mem_ctrls.wrQLenPdf::55                      0                       # What write queue length does an incoming req see
system.mem_ctrls.wrQLenPdf::56                      0                       # What write queue length does an incoming req see
system.mem_ctrls.wrQLenPdf::57                      0                       # What write queue length does an incoming req see
system.mem_ctrls.wrQLenPdf::58                      0                       # What write queue length does an incoming req see
system.mem_ctrls.wrQLenPdf::59                      0                       # What write queue length does an incoming req see
system.mem_ctrls.wrQLenPdf::60                      0                       # What write queue length does an incoming req see
system.mem_ctrls.wrQLenPdf::61                      0                       # What write queue length does an incoming req see
system.mem_ctrls.wrQLenPdf::62                      0                       # What write queue length does an incoming req see
system.mem_ctrls.wrQLenPdf::63                      0                       # What write queue length does an incoming req see
system.mem_ctrls.bytesPerActivate::samples      5557406                       # Bytes accessed per row activation
system.mem_ctrls.bytesPerActivate::mean    128.494124                       # Bytes accessed per row activation
system.mem_ctrls.bytesPerActivate::gmean   109.994629                       # Bytes accessed per row activation
system.mem_ctrls.bytesPerActivate::stdev   120.409822                       # Bytes accessed per row activation
system.mem_ctrls.bytesPerActivate::0-127      1745945     31.42%     31.42% # Bytes accessed per row activation
system.mem_ctrls.bytesPerActivate::128-255      3576915     64.36%     95.78% # Bytes accessed per row activation
system.mem_ctrls.bytesPerActivate::256-383        96703      1.74%     97.52% # Bytes accessed per row activation
system.mem_ctrls.bytesPerActivate::384-511        26757      0.48%     98.00% # Bytes accessed per row activation
system.mem_ctrls.bytesPerActivate::512-639        14984      0.27%     98.27% # Bytes accessed per row activation
system.mem_ctrls.bytesPerActivate::640-767        11805      0.21%     98.48% # Bytes accessed per row activation
system.mem_ctrls.bytesPerActivate::768-895        10011      0.18%     98.66% # Bytes accessed per row activation
system.mem_ctrls.bytesPerActivate::896-1023         8940      0.16%     98.82% # Bytes accessed per row activation
system.mem_ctrls.bytesPerActivate::1024-1151        65346      1.18%    100.00% # Bytes accessed per row activation
system.mem_ctrls.bytesPerActivate::total      5557406                       # Bytes accessed per row activation
system.mem_ctrls.rdPerTurnAround::samples        70935                       # Reads before turning the bus around for writes
system.mem_ctrls.rdPerTurnAround::mean     140.786382                       # Reads before turning the bus around for writes
system.mem_ctrls.rdPerTurnAround::gmean     75.462856                       # Reads before turning the bus around for writes
system.mem_ctrls.rdPerTurnAround::stdev    191.414327                       # Reads before turning the bus around for writes
system.mem_ctrls.rdPerTurnAround::0-1023        70815     99.83%     99.83% # Reads before turning the bus around for writes
system.mem_ctrls.rdPerTurnAround::1024-2047          119      0.17%    100.00% # Reads before turning the bus around for writes
system.mem_ctrls.rdPerTurnAround::23552-24575            1      0.00%    100.00% # Reads before turning the bus around for writes
system.mem_ctrls.rdPerTurnAround::total         70935                       # Reads before turning the bus around for writes
system.mem_ctrls.wrPerTurnAround::samples        70935                       # Writes before turning the bus around for reads
system.mem_ctrls.wrPerTurnAround::mean      16.507634                       # Writes before turning the bus around for reads
system.mem_ctrls.wrPerTurnAround::gmean     16.486078                       # Writes before turning the bus around for reads
system.mem_ctrls.wrPerTurnAround::stdev      0.859646                       # Writes before turning the bus around for reads
system.mem_ctrls.wrPerTurnAround::16            52268     73.68%     73.68% # Writes before turning the bus around for reads
system.mem_ctrls.wrPerTurnAround::17             1328      1.87%     75.56% # Writes before turning the bus around for reads
system.mem_ctrls.wrPerTurnAround::18            17336     24.44%    100.00% # Writes before turning the bus around for reads
system.mem_ctrls.wrPerTurnAround::19                3      0.00%    100.00% # Writes before turning the bus around for reads
system.mem_ctrls.wrPerTurnAround::total         70935                       # Writes before turning the bus around for reads
system.mem_ctrls.totQLat                 232508233750                       # Total ticks spent queuing
system.mem_ctrls.totMemAccLat            419759796250                       # Total ticks spent from burst creation until serviced by the DRAM
system.mem_ctrls.totBusLat                49933750000                       # Total ticks spent in databus transfers
system.mem_ctrls.avgQLat                     23281.67                       # Average queueing delay per DRAM burst
system.mem_ctrls.avgBusLat                    5000.00                       # Average bus latency per DRAM burst
system.mem_ctrls.avgMemAccLat                42031.67                       # Average memory access latency per DRAM burst
system.mem_ctrls.avgRdBW                       319.92                       # Average DRAM read bandwidth in MiByte/s
system.mem_ctrls.avgWrBW                        37.51                       # Average achieved write bandwidth in MiByte/s
system.mem_ctrls.avgRdBWSys                    160.04                       # Average system read bandwidth in MiByte/s
system.mem_ctrls.avgWrBWSys                     19.74                       # Average system write bandwidth in MiByte/s
system.mem_ctrls.peakBW                      12800.00                       # Theoretical peak bandwidth in MiByte/s
system.mem_ctrls.busUtil                         2.79                       # Data bus utilization in percentage
system.mem_ctrls.busUtilRead                     2.50                       # Data bus utilization in percentage for reads
system.mem_ctrls.busUtilWrite                    0.29                       # Data bus utilization in percentage for writes
system.mem_ctrls.avgRdQLen                       1.00                       # Average read queue length when enqueuing
system.mem_ctrls.avgWrQLen                      25.09                       # Average write queue length when enqueuing
system.mem_ctrls.readRowHits                  5063727                       # Number of row buffer hits during reads
system.mem_ctrls.writeRowHits                  536586                       # Number of row buffer hits during writes
system.mem_ctrls.readRowHitRate                 50.70                       # Row buffer hit rate for reads
system.mem_ctrls.writeRowHitRate                45.82                       # Row buffer hit rate for writes
system.mem_ctrls.avgGap                     177995.10                       # Average gap between requests
system.mem_ctrls.pageHitRate                    50.19                       # Row buffer hit rate, read and write combined
system.mem_ctrls_0.actEnergy              19736280900                       # Energy for activate commands per rank (pJ)
system.mem_ctrls_0.preEnergy              10490082075                       # Energy for precharge commands per rank (pJ)
system.mem_ctrls_0.readEnergy             35524248900                       # Energy for read commands per rank (pJ)
system.mem_ctrls_0.writeEnergy             3065544180                       # Energy for write commands per rank (pJ)
system.mem_ctrls_0.refreshEnergy         149793299760.000031                       # Energy for refresh commands per rank (pJ)
system.mem_ctrls_0.actBackEnergy         123073271970                       # Energy for active background per rank (pJ)
system.mem_ctrls_0.preBackEnergy           4856936160                       # Energy for precharge background per rank (pJ)
system.mem_ctrls_0.actPowerDownEnergy    587911463970                       # Energy for active power-down per rank (pJ)
system.mem_ctrls_0.prePowerDownEnergy     79414744320                       # Energy for precharge power-down per rank (pJ)
system.mem_ctrls_0.selfRefreshEnergy      61678588755                       # Energy for self refresh per rank (pJ)
system.mem_ctrls_0.totalEnergy           1075566084630                       # Total energy per rank (pJ)
system.mem_ctrls_0.averagePower            538.359574                       # Core power per rank (mW)
system.mem_ctrls_0.totalIdleTime         1715260141500                       # Total Idle time Per DRAM Rank
system.mem_ctrls_0.memoryStateTime::IDLE   5642080750                       # Time in different power states
system.mem_ctrls_0.memoryStateTime::REF   63467000000                       # Time in different power states
system.mem_ctrls_0.memoryStateTime::SREF 219175565000                       # Time in different power states
system.mem_ctrls_0.memoryStateTime::PRE_PDN 206808592000                       # Time in different power states
system.mem_ctrls_0.memoryStateTime::ACT  213481007250                       # Time in different power states
system.mem_ctrls_0.memoryStateTime::ACT_PDN 1289283937500                       # Time in different power states
system.mem_ctrls_1.actEnergy              19943597940                       # Energy for activate commands per rank (pJ)
system.mem_ctrls_1.preEnergy              10600273695                       # Energy for precharge commands per rank (pJ)
system.mem_ctrls_1.readEnergy             35781146100                       # Energy for read commands per rank (pJ)
system.mem_ctrls_1.writeEnergy             3046914000                       # Energy for write commands per rank (pJ)
system.mem_ctrls_1.refreshEnergy         149709094080.000031                       # Energy for refresh commands per rank (pJ)
system.mem_ctrls_1.actBackEnergy         123602705070                       # Energy for active background per rank (pJ)
system.mem_ctrls_1.preBackEnergy           4965062400                       # Energy for precharge background per rank (pJ)
system.mem_ctrls_1.actPowerDownEnergy    586699288860                       # Energy for active power-down per rank (pJ)
system.mem_ctrls_1.prePowerDownEnergy     80461140000                       # Energy for precharge power-down per rank (pJ)
system.mem_ctrls_1.selfRefreshEnergy      61119748860                       # Energy for self refresh per rank (pJ)
system.mem_ctrls_1.totalEnergy           1075949601675                       # Total energy per rank (pJ)
system.mem_ctrls_1.averagePower            538.551540                       # Core power per rank (mW)
system.mem_ctrls_1.totalIdleTime         1713814044250                       # Total Idle time Per DRAM Rank
system.mem_ctrls_1.memoryStateTime::IDLE   5559213750                       # Time in different power states
system.mem_ctrls_1.memoryStateTime::REF   63429274000                       # Time in different power states
system.mem_ctrls_1.memoryStateTime::SREF 217668442500                       # Time in different power states
system.mem_ctrls_1.memoryStateTime::PRE_PDN 209533378500                       # Time in different power states
system.mem_ctrls_1.memoryStateTime::ACT  215048651250                       # Time in different power states
system.mem_ctrls_1.memoryStateTime::ACT_PDN 1286619222500                       # Time in different power states
system.pwrStateResidencyTicks::UNDEFINED 1997858182500                       # Cumulative time (in ticks) in various power states
system.cpu_voltage_domain.voltage                   1                       # Voltage in Volts
system.cpu_clk_domain.clock                       500                       # Clock period in ticks
system.cpu.dtb.walker.pwrStateResidencyTicks::UNDEFINED 1997858182500                       # Cumulative time (in ticks) in various power states
system.cpu.apic_clk_domain.clock                 8000                       # Clock period in ticks
system.cpu.interrupts.pwrStateResidencyTicks::UNDEFINED 1997858182500                       # Cumulative time (in ticks) in various power states
system.cpu.itb.walker.pwrStateResidencyTicks::UNDEFINED 1997858182500                       # Cumulative time (in ticks) in various power states
system.cpu.workload.num_syscalls                  168                       # Number of system calls
system.cpu.pwrStateResidencyTicks::ON    1997858182500                       # Cumulative time (in ticks) in various power states
system.cpu.numCycles                       3995716365                       # number of cpu cycles simulated
system.cpu.numWorkItemsStarted                      0                       # number of work items this cpu started
system.cpu.numWorkItemsCompleted                    0                       # number of work items this cpu completed
system.cpu.committedInsts                   500000000                       # Number of instructions committed
system.cpu.committedOps                     876313781                       # Number of ops (including micro ops) committed
system.cpu.num_int_alu_accesses             872966677                       # Number of integer alu accesses
system.cpu.num_fp_alu_accesses                2882231                       # Number of float alu accesses
system.cpu.num_func_calls                    11025254                       # number of times a function call or return occured
system.cpu.num_conditional_control_insts     75981009                       # number of instructions that are conditional controls
system.cpu.num_int_insts                    872966677                       # number of integer instructions
system.cpu.num_fp_insts                       2882231                       # number of float instructions
system.cpu.num_int_register_reads          1835046952                       # number of times the integer registers were read
system.cpu.num_int_register_writes          703076416                       # number of times the integer registers were written
system.cpu.num_fp_register_reads              4386063                       # number of times the floating registers were read
system.cpu.num_fp_register_writes             2464405                       # number of times the floating registers were written
system.cpu.num_cc_register_reads            441654669                       # number of times the CC registers were read
system.cpu.num_cc_register_writes           253505512                       # number of times the CC registers were written
system.cpu.num_mem_refs                     293763598                       # number of memory refs
system.cpu.num_load_insts                   221285042                       # Number of load instructions
system.cpu.num_store_insts                   72478556                       # Number of store instructions
system.cpu.num_idle_cycles                          0                       # Number of idle cycles
system.cpu.num_busy_cycles                 3995716365                       # Number of busy cycles
system.cpu.not_idle_fraction                        1                       # Percentage of non-idle cycles
system.cpu.idle_fraction                            0                       # Percentage of idle cycles
system.cpu.Branches                          97901001                       # Number of branches fetched
system.cpu.op_class::No_OpClass                939430      0.11%      0.11% # Class of executed instruction
system.cpu.op_class::IntAlu                 578420252     66.01%     66.11% # Class of executed instruction
system.cpu.op_class::IntMult                   907073      0.10%     66.22% # Class of executed instruction
system.cpu.op_class::IntDiv                        42      0.00%     66.22% # Class of executed instruction
system.cpu.op_class::FloatAdd                 2283386      0.26%     66.48% # Class of executed instruction
system.cpu.op_class::FloatCmp                       0      0.00%     66.48% # Class of executed instruction
system.cpu.op_class::FloatCvt                       0      0.00%     66.48% # Class of executed instruction
system.cpu.op_class::FloatMult                      0      0.00%     66.48% # Class of executed instruction
system.cpu.op_class::FloatDiv                       0      0.00%     66.48% # Class of executed instruction
system.cpu.op_class::FloatSqrt                      0      0.00%     66.48% # Class of executed instruction
system.cpu.op_class::SimdAdd                        0      0.00%     66.48% # Class of executed instruction
system.cpu.op_class::SimdAddAcc                     0      0.00%     66.48% # Class of executed instruction
system.cpu.op_class::SimdAlu                        0      0.00%     66.48% # Class of executed instruction
system.cpu.op_class::SimdCmp                        0      0.00%     66.48% # Class of executed instruction
system.cpu.op_class::SimdCvt                        0      0.00%     66.48% # Class of executed instruction
system.cpu.op_class::SimdMisc                       0      0.00%     66.48% # Class of executed instruction
system.cpu.op_class::SimdMult                       0      0.00%     66.48% # Class of executed instruction
system.cpu.op_class::SimdMultAcc                    0      0.00%     66.48% # Class of executed instruction
system.cpu.op_class::SimdShift                      0      0.00%     66.48% # Class of executed instruction
system.cpu.op_class::SimdShiftAcc                   0      0.00%     66.48% # Class of executed instruction
system.cpu.op_class::SimdSqrt                       0      0.00%     66.48% # Class of executed instruction
system.cpu.op_class::SimdFloatAdd                   0      0.00%     66.48% # Class of executed instruction
system.cpu.op_class::SimdFloatAlu                   0      0.00%     66.48% # Class of executed instruction
system.cpu.op_class::SimdFloatCmp                   0      0.00%     66.48% # Class of executed instruction
system.cpu.op_class::SimdFloatCvt                   0      0.00%     66.48% # Class of executed instruction
system.cpu.op_class::SimdFloatDiv                   0      0.00%     66.48% # Class of executed instruction
system.cpu.op_class::SimdFloatMisc                  0      0.00%     66.48% # Class of executed instruction
system.cpu.op_class::SimdFloatMult                  0      0.00%     66.48% # Class of executed instruction
system.cpu.op_class::SimdFloatMultAcc               0      0.00%     66.48% # Class of executed instruction
system.cpu.op_class::SimdFloatSqrt                  0      0.00%     66.48% # Class of executed instruction
system.cpu.op_class::MemRead                221285042     25.25%     91.73% # Class of executed instruction
system.cpu.op_class::MemWrite                72478556      8.27%    100.00% # Class of executed instruction
system.cpu.op_class::IprAccess                      0      0.00%    100.00% # Class of executed instruction
system.cpu.op_class::InstPrefetch                   0      0.00%    100.00% # Class of executed instruction
system.cpu.op_class::total                  876313781                       # Class of executed instruction
system.cpu.dcache.tags.pwrStateResidencyTicks::UNDEFINED 1997858182500                       # Cumulative time (in ticks) in various power states
system.cpu.dcache.tags.replacements          15602796                       # number of replacements
system.cpu.dcache.tags.tagsinuse          2047.566767                       # Cycle average of tags in use
system.cpu.dcache.tags.total_refs           278207005                       # Total number of references to valid blocks.
system.cpu.dcache.tags.sampled_refs          15604844                       # Sample count of references to valid blocks.
system.cpu.dcache.tags.avg_refs             17.828246                       # Average number of references to valid blocks.
system.cpu.dcache.tags.warmup_cycle        1256269500                       # Cycle when the warmup percentage was hit.
system.cpu.dcache.tags.occ_blocks::cpu.data  2047.566767                       # Average occupied blocks per requestor
system.cpu.dcache.tags.occ_percent::cpu.data     0.999788                       # Average percentage of cache occupancy
system.cpu.dcache.tags.occ_percent::total     0.999788                       # Average percentage of cache occupancy
system.cpu.dcache.tags.occ_task_id_blocks::1024         2048                       # Occupied blocks per task id
system.cpu.dcache.tags.age_task_id_blocks_1024::0            6                       # Occupied blocks per task id
system.cpu.dcache.tags.age_task_id_blocks_1024::1          820                       # Occupied blocks per task id
system.cpu.dcache.tags.age_task_id_blocks_1024::2         1151                       # Occupied blocks per task id
system.cpu.dcache.tags.age_task_id_blocks_1024::3           70                       # Occupied blocks per task id
system.cpu.dcache.tags.age_task_id_blocks_1024::4            1                       # Occupied blocks per task id
system.cpu.dcache.tags.occ_task_id_percent::1024            1                       # Percentage of cache occupancy per task id
system.cpu.dcache.tags.tag_accesses        1190852240                       # Number of tag accesses
system.cpu.dcache.tags.data_accesses       1190852240                       # Number of data accesses
system.cpu.dcache.pwrStateResidencyTicks::UNDEFINED 1997858182500                       # Cumulative time (in ticks) in various power states
system.cpu.dcache.ReadReq_hits::cpu.data    206439733                       # number of ReadReq hits
system.cpu.dcache.ReadReq_hits::total       206439733                       # number of ReadReq hits
system.cpu.dcache.WriteReq_hits::cpu.data     71767272                       # number of WriteReq hits
system.cpu.dcache.WriteReq_hits::total       71767272                       # number of WriteReq hits
system.cpu.dcache.demand_hits::cpu.data     278207005                       # number of demand (read+write) hits
system.cpu.dcache.demand_hits::total        278207005                       # number of demand (read+write) hits
system.cpu.dcache.overall_hits::cpu.data    278207005                       # number of overall hits
system.cpu.dcache.overall_hits::total       278207005                       # number of overall hits
system.cpu.dcache.ReadReq_misses::cpu.data     14893557                       # number of ReadReq misses
system.cpu.dcache.ReadReq_misses::total      14893557                       # number of ReadReq misses
system.cpu.dcache.WriteReq_misses::cpu.data       711287                       # number of WriteReq misses
system.cpu.dcache.WriteReq_misses::total       711287                       # number of WriteReq misses
system.cpu.dcache.demand_misses::cpu.data     15604844                       # number of demand (read+write) misses
system.cpu.dcache.demand_misses::total       15604844                       # number of demand (read+write) misses
system.cpu.dcache.overall_misses::cpu.data     15604844                       # number of overall misses
system.cpu.dcache.overall_misses::total      15604844                       # number of overall misses
system.cpu.dcache.ReadReq_miss_latency::cpu.data 981170916500                       # number of ReadReq miss cycles
system.cpu.dcache.ReadReq_miss_latency::total 981170916500                       # number of ReadReq miss cycles
system.cpu.dcache.WriteReq_miss_latency::cpu.data  45449784500                       # number of WriteReq miss cycles
system.cpu.dcache.WriteReq_miss_latency::total  45449784500                       # number of WriteReq miss cycles
system.cpu.dcache.demand_miss_latency::cpu.data 1026620701000                       # number of demand (read+write) miss cycles
system.cpu.dcache.demand_miss_latency::total 1026620701000                       # number of demand (read+write) miss cycles
system.cpu.dcache.overall_miss_latency::cpu.data 1026620701000                       # number of overall miss cycles
system.cpu.dcache.overall_miss_latency::total 1026620701000                       # number of overall miss cycles
system.cpu.dcache.ReadReq_accesses::cpu.data    221333290                       # number of ReadReq accesses(hits+misses)
system.cpu.dcache.ReadReq_accesses::total    221333290                       # number of ReadReq accesses(hits+misses)
system.cpu.dcache.WriteReq_accesses::cpu.data     72478559                       # number of WriteReq accesses(hits+misses)
system.cpu.dcache.WriteReq_accesses::total     72478559                       # number of WriteReq accesses(hits+misses)
system.cpu.dcache.demand_accesses::cpu.data    293811849                       # number of demand (read+write) accesses
system.cpu.dcache.demand_accesses::total    293811849                       # number of demand (read+write) accesses
system.cpu.dcache.overall_accesses::cpu.data    293811849                       # number of overall (read+write) accesses
system.cpu.dcache.overall_accesses::total    293811849                       # number of overall (read+write) accesses
system.cpu.dcache.ReadReq_miss_rate::cpu.data     0.067290                       # miss rate for ReadReq accesses
system.cpu.dcache.ReadReq_miss_rate::total     0.067290                       # miss rate for ReadReq accesses
system.cpu.dcache.WriteReq_miss_rate::cpu.data     0.009814                       # miss rate for WriteReq accesses
system.cpu.dcache.WriteReq_miss_rate::total     0.009814                       # miss rate for WriteReq accesses
system.cpu.dcache.demand_miss_rate::cpu.data     0.053112                       # miss rate for demand accesses
system.cpu.dcache.demand_miss_rate::total     0.053112                       # miss rate for demand accesses
system.cpu.dcache.overall_miss_rate::cpu.data     0.053112                       # miss rate for overall accesses
system.cpu.dcache.overall_miss_rate::total     0.053112                       # miss rate for overall accesses
system.cpu.dcache.ReadReq_avg_miss_latency::cpu.data 65878.884171                       # average ReadReq miss latency
system.cpu.dcache.ReadReq_avg_miss_latency::total 65878.884171                       # average ReadReq miss latency
system.cpu.dcache.WriteReq_avg_miss_latency::cpu.data 63897.954693                       # average WriteReq miss latency
system.cpu.dcache.WriteReq_avg_miss_latency::total 63897.954693                       # average WriteReq miss latency
system.cpu.dcache.demand_avg_miss_latency::cpu.data 65788.591094                       # average overall miss latency
system.cpu.dcache.demand_avg_miss_latency::total 65788.591094                       # average overall miss latency
system.cpu.dcache.overall_avg_miss_latency::cpu.data 65788.591094                       # average overall miss latency
system.cpu.dcache.overall_avg_miss_latency::total 65788.591094                       # average overall miss latency
system.cpu.dcache.blocked_cycles::no_mshrs            0                       # number of cycles access was blocked
system.cpu.dcache.blocked_cycles::no_targets            0                       # number of cycles access was blocked
system.cpu.dcache.blocked::no_mshrs                 0                       # number of cycles access was blocked
system.cpu.dcache.blocked::no_targets               0                       # number of cycles access was blocked
system.cpu.dcache.avg_blocked_cycles::no_mshrs          nan                       # average number of cycles each access was blocked
system.cpu.dcache.avg_blocked_cycles::no_targets          nan                       # average number of cycles each access was blocked
system.cpu.dcache.writebacks::writebacks      4053136                       # number of writebacks
system.cpu.dcache.writebacks::total           4053136                       # number of writebacks
system.cpu.dcache.ReadReq_mshr_misses::cpu.data     14893557                       # number of ReadReq MSHR misses
system.cpu.dcache.ReadReq_mshr_misses::total     14893557                       # number of ReadReq MSHR misses
system.cpu.dcache.WriteReq_mshr_misses::cpu.data       711287                       # number of WriteReq MSHR misses
system.cpu.dcache.WriteReq_mshr_misses::total       711287                       # number of WriteReq MSHR misses
system.cpu.dcache.demand_mshr_misses::cpu.data     15604844                       # number of demand (read+write) MSHR misses
system.cpu.dcache.demand_mshr_misses::total     15604844                       # number of demand (read+write) MSHR misses
system.cpu.dcache.overall_mshr_misses::cpu.data     15604844                       # number of overall MSHR misses
system.cpu.dcache.overall_mshr_misses::total     15604844                       # number of overall MSHR misses
system.cpu.dcache.ReadReq_mshr_miss_latency::cpu.data 966277359500                       # number of ReadReq MSHR miss cycles
system.cpu.dcache.ReadReq_mshr_miss_latency::total 966277359500                       # number of ReadReq MSHR miss cycles
system.cpu.dcache.WriteReq_mshr_miss_latency::cpu.data  44738497500                       # number of WriteReq MSHR miss cycles
system.cpu.dcache.WriteReq_mshr_miss_latency::total  44738497500                       # number of WriteReq MSHR miss cycles
system.cpu.dcache.demand_mshr_miss_latency::cpu.data 1011015857000                       # number of demand (read+write) MSHR miss cycles
system.cpu.dcache.demand_mshr_miss_latency::total 1011015857000                       # number of demand (read+write) MSHR miss cycles
system.cpu.dcache.overall_mshr_miss_latency::cpu.data 1011015857000                       # number of overall MSHR miss cycles
system.cpu.dcache.overall_mshr_miss_latency::total 1011015857000                       # number of overall MSHR miss cycles
system.cpu.dcache.ReadReq_mshr_miss_rate::cpu.data     0.067290                       # mshr miss rate for ReadReq accesses
system.cpu.dcache.ReadReq_mshr_miss_rate::total     0.067290                       # mshr miss rate for ReadReq accesses
system.cpu.dcache.WriteReq_mshr_miss_rate::cpu.data     0.009814                       # mshr miss rate for WriteReq accesses
system.cpu.dcache.WriteReq_mshr_miss_rate::total     0.009814                       # mshr miss rate for WriteReq accesses
system.cpu.dcache.demand_mshr_miss_rate::cpu.data     0.053112                       # mshr miss rate for demand accesses
system.cpu.dcache.demand_mshr_miss_rate::total     0.053112                       # mshr miss rate for demand accesses
system.cpu.dcache.overall_mshr_miss_rate::cpu.data     0.053112                       # mshr miss rate for overall accesses
system.cpu.dcache.overall_mshr_miss_rate::total     0.053112                       # mshr miss rate for overall accesses
system.cpu.dcache.ReadReq_avg_mshr_miss_latency::cpu.data 64878.884171                       # average ReadReq mshr miss latency
system.cpu.dcache.ReadReq_avg_mshr_miss_latency::total 64878.884171                       # average ReadReq mshr miss latency
system.cpu.dcache.WriteReq_avg_mshr_miss_latency::cpu.data 62897.954693                       # average WriteReq mshr miss latency
system.cpu.dcache.WriteReq_avg_mshr_miss_latency::total 62897.954693                       # average WriteReq mshr miss latency
system.cpu.dcache.demand_avg_mshr_miss_latency::cpu.data 64788.591094                       # average overall mshr miss latency
system.cpu.dcache.demand_avg_mshr_miss_latency::total 64788.591094                       # average overall mshr miss latency
system.cpu.dcache.overall_avg_mshr_miss_latency::cpu.data 64788.591094                       # average overall mshr miss latency
system.cpu.dcache.overall_avg_mshr_miss_latency::total 64788.591094                       # average overall mshr miss latency
system.cpu.dtb_walker_cache.tags.pwrStateResidencyTicks::UNDEFINED 1997858182500                       # Cumulative time (in ticks) in various power states
system.cpu.dtb_walker_cache.tags.replacements            0                       # number of replacements
system.cpu.dtb_walker_cache.tags.tagsinuse            0                       # Cycle average of tags in use
system.cpu.dtb_walker_cache.tags.total_refs            0                       # Total number of references to valid blocks.
system.cpu.dtb_walker_cache.tags.sampled_refs            0                       # Sample count of references to valid blocks.
system.cpu.dtb_walker_cache.tags.avg_refs          nan                       # Average number of references to valid blocks.
system.cpu.dtb_walker_cache.tags.warmup_cycle            0                       # Cycle when the warmup percentage was hit.
system.cpu.dtb_walker_cache.tags.tag_accesses            0                       # Number of tag accesses
system.cpu.dtb_walker_cache.tags.data_accesses            0                       # Number of data accesses
system.cpu.dtb_walker_cache.pwrStateResidencyTicks::UNDEFINED 1997858182500                       # Cumulative time (in ticks) in various power states
system.cpu.dtb_walker_cache.blocked_cycles::no_mshrs            0                       # number of cycles access was blocked
system.cpu.dtb_walker_cache.blocked_cycles::no_targets            0                       # number of cycles access was blocked
system.cpu.dtb_walker_cache.blocked::no_mshrs            0                       # number of cycles access was blocked
system.cpu.dtb_walker_cache.blocked::no_targets            0                       # number of cycles access was blocked
system.cpu.dtb_walker_cache.avg_blocked_cycles::no_mshrs          nan                       # average number of cycles each access was blocked
system.cpu.dtb_walker_cache.avg_blocked_cycles::no_targets          nan                       # average number of cycles each access was blocked
system.cpu.icache.tags.pwrStateResidencyTicks::UNDEFINED 1997858182500                       # Cumulative time (in ticks) in various power states
system.cpu.icache.tags.replacements           1303772                       # number of replacements
system.cpu.icache.tags.tagsinuse           255.996745                       # Cycle average of tags in use
system.cpu.icache.tags.total_refs           676013916                       # Total number of references to valid blocks.
system.cpu.icache.tags.sampled_refs           1304028                       # Sample count of references to valid blocks.
system.cpu.icache.tags.avg_refs            518.404448                       # Average number of references to valid blocks.
system.cpu.icache.tags.warmup_cycle         104455500                       # Cycle when the warmup percentage was hit.
system.cpu.icache.tags.occ_blocks::cpu.inst   255.996745                       # Average occupied blocks per requestor
system.cpu.icache.tags.occ_percent::cpu.inst     0.999987                       # Average percentage of cache occupancy
system.cpu.icache.tags.occ_percent::total     0.999987                       # Average percentage of cache occupancy
system.cpu.icache.tags.occ_task_id_blocks::1024          256                       # Occupied blocks per task id
system.cpu.icache.tags.age_task_id_blocks_1024::4          256                       # Occupied blocks per task id
system.cpu.icache.tags.occ_task_id_percent::1024            1                       # Percentage of cache occupancy per task id
system.cpu.icache.tags.tag_accesses        2710575804                       # Number of tag accesses
system.cpu.icache.tags.data_accesses       2710575804                       # Number of data accesses
system.cpu.icache.pwrStateResidencyTicks::UNDEFINED 1997858182500                       # Cumulative time (in ticks) in various power states
system.cpu.icache.ReadReq_hits::cpu.inst    676013916                       # number of ReadReq hits
system.cpu.icache.ReadReq_hits::total       676013916                       # number of ReadReq hits
system.cpu.icache.demand_hits::cpu.inst     676013916                       # number of demand (read+write) hits
system.cpu.icache.demand_hits::total        676013916                       # number of demand (read+write) hits
system.cpu.icache.overall_hits::cpu.inst    676013916                       # number of overall hits
system.cpu.icache.overall_hits::total       676013916                       # number of overall hits
system.cpu.icache.ReadReq_misses::cpu.inst      1304028                       # number of ReadReq misses
system.cpu.icache.ReadReq_misses::total       1304028                       # number of ReadReq misses
system.cpu.icache.demand_misses::cpu.inst      1304028                       # number of demand (read+write) misses
system.cpu.icache.demand_misses::total        1304028                       # number of demand (read+write) misses
system.cpu.icache.overall_misses::cpu.inst      1304028                       # number of overall misses
system.cpu.icache.overall_misses::total       1304028                       # number of overall misses
system.cpu.icache.ReadReq_miss_latency::cpu.inst  17043449500                       # number of ReadReq miss cycles
system.cpu.icache.ReadReq_miss_latency::total  17043449500                       # number of ReadReq miss cycles
system.cpu.icache.demand_miss_latency::cpu.inst  17043449500                       # number of demand (read+write) miss cycles
system.cpu.icache.demand_miss_latency::total  17043449500                       # number of demand (read+write) miss cycles
system.cpu.icache.overall_miss_latency::cpu.inst  17043449500                       # number of overall miss cycles
system.cpu.icache.overall_miss_latency::total  17043449500                       # number of overall miss cycles
system.cpu.icache.ReadReq_accesses::cpu.inst    677317944                       # number of ReadReq accesses(hits+misses)
system.cpu.icache.ReadReq_accesses::total    677317944                       # number of ReadReq accesses(hits+misses)
system.cpu.icache.demand_accesses::cpu.inst    677317944                       # number of demand (read+write) accesses
system.cpu.icache.demand_accesses::total    677317944                       # number of demand (read+write) accesses
system.cpu.icache.overall_accesses::cpu.inst    677317944                       # number of overall (read+write) accesses
system.cpu.icache.overall_accesses::total    677317944                       # number of overall (read+write) accesses
system.cpu.icache.ReadReq_miss_rate::cpu.inst     0.001925                       # miss rate for ReadReq accesses
system.cpu.icache.ReadReq_miss_rate::total     0.001925                       # miss rate for ReadReq accesses
system.cpu.icache.demand_miss_rate::cpu.inst     0.001925                       # miss rate for demand accesses
system.cpu.icache.demand_miss_rate::total     0.001925                       # miss rate for demand accesses
system.cpu.icache.overall_miss_rate::cpu.inst     0.001925                       # miss rate for overall accesses
system.cpu.icache.overall_miss_rate::total     0.001925                       # miss rate for overall accesses
system.cpu.icache.ReadReq_avg_miss_latency::cpu.inst 13069.849344                       # average ReadReq miss latency
system.cpu.icache.ReadReq_avg_miss_latency::total 13069.849344                       # average ReadReq miss latency
system.cpu.icache.demand_avg_miss_latency::cpu.inst 13069.849344                       # average overall miss latency
system.cpu.icache.demand_avg_miss_latency::total 13069.849344                       # average overall miss latency
system.cpu.icache.overall_avg_miss_latency::cpu.inst 13069.849344                       # average overall miss latency
system.cpu.icache.overall_avg_miss_latency::total 13069.849344                       # average overall miss latency
system.cpu.icache.blocked_cycles::no_mshrs            0                       # number of cycles access was blocked
system.cpu.icache.blocked_cycles::no_targets            0                       # number of cycles access was blocked
system.cpu.icache.blocked::no_mshrs                 0                       # number of cycles access was blocked
system.cpu.icache.blocked::no_targets               0                       # number of cycles access was blocked
system.cpu.icache.avg_blocked_cycles::no_mshrs          nan                       # average number of cycles each access was blocked
system.cpu.icache.avg_blocked_cycles::no_targets          nan                       # average number of cycles each access was blocked
system.cpu.icache.writebacks::writebacks      1303772                       # number of writebacks
system.cpu.icache.writebacks::total           1303772                       # number of writebacks
system.cpu.icache.ReadReq_mshr_misses::cpu.inst      1304028                       # number of ReadReq MSHR misses
system.cpu.icache.ReadReq_mshr_misses::total      1304028                       # number of ReadReq MSHR misses
system.cpu.icache.demand_mshr_misses::cpu.inst      1304028                       # number of demand (read+write) MSHR misses
system.cpu.icache.demand_mshr_misses::total      1304028                       # number of demand (read+write) MSHR misses
system.cpu.icache.overall_mshr_misses::cpu.inst      1304028                       # number of overall MSHR misses
system.cpu.icache.overall_mshr_misses::total      1304028                       # number of overall MSHR misses
system.cpu.icache.ReadReq_mshr_miss_latency::cpu.inst  15739421500                       # number of ReadReq MSHR miss cycles
system.cpu.icache.ReadReq_mshr_miss_latency::total  15739421500                       # number of ReadReq MSHR miss cycles
system.cpu.icache.demand_mshr_miss_latency::cpu.inst  15739421500                       # number of demand (read+write) MSHR miss cycles
system.cpu.icache.demand_mshr_miss_latency::total  15739421500                       # number of demand (read+write) MSHR miss cycles
system.cpu.icache.overall_mshr_miss_latency::cpu.inst  15739421500                       # number of overall MSHR miss cycles
system.cpu.icache.overall_mshr_miss_latency::total  15739421500                       # number of overall MSHR miss cycles
system.cpu.icache.ReadReq_mshr_miss_rate::cpu.inst     0.001925                       # mshr miss rate for ReadReq accesses
system.cpu.icache.ReadReq_mshr_miss_rate::total     0.001925                       # mshr miss rate for ReadReq accesses
system.cpu.icache.demand_mshr_miss_rate::cpu.inst     0.001925                       # mshr miss rate for demand accesses
system.cpu.icache.demand_mshr_miss_rate::total     0.001925                       # mshr miss rate for demand accesses
system.cpu.icache.overall_mshr_miss_rate::cpu.inst     0.001925                       # mshr miss rate for overall accesses
system.cpu.icache.overall_mshr_miss_rate::total     0.001925                       # mshr miss rate for overall accesses
system.cpu.icache.ReadReq_avg_mshr_miss_latency::cpu.inst 12069.849344                       # average ReadReq mshr miss latency
system.cpu.icache.ReadReq_avg_mshr_miss_latency::total 12069.849344                       # average ReadReq mshr miss latency
system.cpu.icache.demand_avg_mshr_miss_latency::cpu.inst 12069.849344                       # average overall mshr miss latency
system.cpu.icache.demand_avg_mshr_miss_latency::total 12069.849344                       # average overall mshr miss latency
system.cpu.icache.overall_avg_mshr_miss_latency::cpu.inst 12069.849344                       # average overall mshr miss latency
system.cpu.icache.overall_avg_mshr_miss_latency::total 12069.849344                       # average overall mshr miss latency
system.cpu.itb_walker_cache.tags.pwrStateResidencyTicks::UNDEFINED 1997858182500                       # Cumulative time (in ticks) in various power states
system.cpu.itb_walker_cache.tags.replacements            0                       # number of replacements
system.cpu.itb_walker_cache.tags.tagsinuse            0                       # Cycle average of tags in use
system.cpu.itb_walker_cache.tags.total_refs            0                       # Total number of references to valid blocks.
system.cpu.itb_walker_cache.tags.sampled_refs            0                       # Sample count of references to valid blocks.
system.cpu.itb_walker_cache.tags.avg_refs          nan                       # Average number of references to valid blocks.
system.cpu.itb_walker_cache.tags.warmup_cycle            0                       # Cycle when the warmup percentage was hit.
system.cpu.itb_walker_cache.tags.tag_accesses            0                       # Number of tag accesses
system.cpu.itb_walker_cache.tags.data_accesses            0                       # Number of data accesses
system.cpu.itb_walker_cache.pwrStateResidencyTicks::UNDEFINED 1997858182500                       # Cumulative time (in ticks) in various power states
system.cpu.itb_walker_cache.blocked_cycles::no_mshrs            0                       # number of cycles access was blocked
system.cpu.itb_walker_cache.blocked_cycles::no_targets            0                       # number of cycles access was blocked
system.cpu.itb_walker_cache.blocked::no_mshrs            0                       # number of cycles access was blocked
system.cpu.itb_walker_cache.blocked::no_targets            0                       # number of cycles access was blocked
system.cpu.itb_walker_cache.avg_blocked_cycles::no_mshrs          nan                       # average number of cycles each access was blocked
system.cpu.itb_walker_cache.avg_blocked_cycles::no_targets          nan                       # average number of cycles each access was blocked
system.l2.tags.pwrStateResidencyTicks::UNDEFINED 1997858182500                       # Cumulative time (in ticks) in various power states
system.l2.tags.replacements                   9968692                       # number of replacements
system.l2.tags.tagsinuse                 32657.197437                       # Cycle average of tags in use
system.l2.tags.total_refs                    23812418                       # Total number of references to valid blocks.
system.l2.tags.sampled_refs                  10001460                       # Sample count of references to valid blocks.
system.l2.tags.avg_refs                      2.380894                       # Average number of references to valid blocks.
system.l2.tags.warmup_cycle               18407422000                       # Cycle when the warmup percentage was hit.
system.l2.tags.occ_blocks::writebacks       62.453998                       # Average occupied blocks per requestor
system.l2.tags.occ_blocks::cpu.inst         14.079125                       # Average occupied blocks per requestor
system.l2.tags.occ_blocks::cpu.data      32580.664315                       # Average occupied blocks per requestor
system.l2.tags.occ_percent::writebacks       0.001906                       # Average percentage of cache occupancy
system.l2.tags.occ_percent::cpu.inst         0.000430                       # Average percentage of cache occupancy
system.l2.tags.occ_percent::cpu.data         0.994283                       # Average percentage of cache occupancy
system.l2.tags.occ_percent::total            0.996619                       # Average percentage of cache occupancy
system.l2.tags.occ_task_id_blocks::1024         32768                       # Occupied blocks per task id
system.l2.tags.age_task_id_blocks_1024::1          568                       # Occupied blocks per task id
system.l2.tags.age_task_id_blocks_1024::2         4533                       # Occupied blocks per task id
system.l2.tags.age_task_id_blocks_1024::3        18338                       # Occupied blocks per task id
system.l2.tags.age_task_id_blocks_1024::4         9329                       # Occupied blocks per task id
system.l2.tags.occ_task_id_percent::1024            1                       # Percentage of cache occupancy per task id
system.l2.tags.tag_accesses                 145263216                       # Number of tag accesses
system.l2.tags.data_accesses                145263216                       # Number of data accesses
system.l2.pwrStateResidencyTicks::UNDEFINED 1997858182500                       # Cumulative time (in ticks) in various power states
system.l2.WritebackDirty_hits::writebacks      4053136                       # number of WritebackDirty hits
system.l2.WritebackDirty_hits::total          4053136                       # number of WritebackDirty hits
system.l2.WritebackClean_hits::writebacks      1303771                       # number of WritebackClean hits
system.l2.WritebackClean_hits::total          1303771                       # number of WritebackClean hits
system.l2.ReadExReq_hits::cpu.data             270065                       # number of ReadExReq hits
system.l2.ReadExReq_hits::total                270065                       # number of ReadExReq hits
system.l2.ReadCleanReq_hits::cpu.inst         1302849                       # number of ReadCleanReq hits
system.l2.ReadCleanReq_hits::total            1302849                       # number of ReadCleanReq hits
system.l2.ReadSharedReq_hits::cpu.data        5344311                       # number of ReadSharedReq hits
system.l2.ReadSharedReq_hits::total           5344311                       # number of ReadSharedReq hits
system.l2.demand_hits::cpu.inst               1302849                       # number of demand (read+write) hits
system.l2.demand_hits::cpu.data               5614376                       # number of demand (read+write) hits
system.l2.demand_hits::total                  6917225                       # number of demand (read+write) hits
system.l2.overall_hits::cpu.inst              1302849                       # number of overall hits
system.l2.overall_hits::cpu.data              5614376                       # number of overall hits
system.l2.overall_hits::total                 6917225                       # number of overall hits
system.l2.ReadExReq_misses::cpu.data           441222                       # number of ReadExReq misses
system.l2.ReadExReq_misses::total              441222                       # number of ReadExReq misses
system.l2.ReadCleanReq_misses::cpu.inst          1179                       # number of ReadCleanReq misses
system.l2.ReadCleanReq_misses::total             1179                       # number of ReadCleanReq misses
system.l2.ReadSharedReq_misses::cpu.data      9549246                       # number of ReadSharedReq misses
system.l2.ReadSharedReq_misses::total         9549246                       # number of ReadSharedReq misses
system.l2.demand_misses::cpu.inst                1179                       # number of demand (read+write) misses
system.l2.demand_misses::cpu.data             9990468                       # number of demand (read+write) misses
system.l2.demand_misses::total                9991647                       # number of demand (read+write) misses
system.l2.overall_misses::cpu.inst               1179                       # number of overall misses
system.l2.overall_misses::cpu.data            9990468                       # number of overall misses
system.l2.overall_misses::total               9991647                       # number of overall misses
system.l2.ReadExReq_miss_latency::cpu.data  40835884500                       # number of ReadExReq miss cycles
system.l2.ReadExReq_miss_latency::total   40835884500                       # number of ReadExReq miss cycles
system.l2.ReadCleanReq_miss_latency::cpu.inst    103464000                       # number of ReadCleanReq miss cycles
system.l2.ReadCleanReq_miss_latency::total    103464000                       # number of ReadCleanReq miss cycles
system.l2.ReadSharedReq_miss_latency::cpu.data 887821758500                       # number of ReadSharedReq miss cycles
system.l2.ReadSharedReq_miss_latency::total 887821758500                       # number of ReadSharedReq miss cycles
system.l2.demand_miss_latency::cpu.inst     103464000                       # number of demand (read+write) miss cycles
system.l2.demand_miss_latency::cpu.data  928657643000                       # number of demand (read+write) miss cycles
system.l2.demand_miss_latency::total     928761107000                       # number of demand (read+write) miss cycles
system.l2.overall_miss_latency::cpu.inst    103464000                       # number of overall miss cycles
system.l2.overall_miss_latency::cpu.data 928657643000                       # number of overall miss cycles
system.l2.overall_miss_latency::total    928761107000                       # number of overall miss cycles
system.l2.WritebackDirty_accesses::writebacks      4053136                       # number of WritebackDirty accesses(hits+misses)
system.l2.WritebackDirty_accesses::total      4053136                       # number of WritebackDirty accesses(hits+misses)
system.l2.WritebackClean_accesses::writebacks      1303771                       # number of WritebackClean accesses(hits+misses)
system.l2.WritebackClean_accesses::total      1303771                       # number of WritebackClean accesses(hits+misses)
system.l2.ReadExReq_accesses::cpu.data         711287                       # number of ReadExReq accesses(hits+misses)
system.l2.ReadExReq_accesses::total            711287                       # number of ReadExReq accesses(hits+misses)
system.l2.ReadCleanReq_accesses::cpu.inst      1304028                       # number of ReadCleanReq accesses(hits+misses)
system.l2.ReadCleanReq_accesses::total        1304028                       # number of ReadCleanReq accesses(hits+misses)
system.l2.ReadSharedReq_accesses::cpu.data     14893557                       # number of ReadSharedReq accesses(hits+misses)
system.l2.ReadSharedReq_accesses::total      14893557                       # number of ReadSharedReq accesses(hits+misses)
system.l2.demand_accesses::cpu.inst           1304028                       # number of demand (read+write) accesses
system.l2.demand_accesses::cpu.data          15604844                       # number of demand (read+write) accesses
system.l2.demand_accesses::total             16908872                       # number of demand (read+write) accesses
system.l2.overall_accesses::cpu.inst          1304028                       # number of overall (read+write) accesses
system.l2.overall_accesses::cpu.data         15604844                       # number of overall (read+write) accesses
system.l2.overall_accesses::total            16908872                       # number of overall (read+write) accesses
system.l2.ReadExReq_miss_rate::cpu.data      0.620315                       # miss rate for ReadExReq accesses
system.l2.ReadExReq_miss_rate::total         0.620315                       # miss rate for ReadExReq accesses
system.l2.ReadCleanReq_miss_rate::cpu.inst     0.000904                       # miss rate for ReadCleanReq accesses
system.l2.ReadCleanReq_miss_rate::total      0.000904                       # miss rate for ReadCleanReq accesses
system.l2.ReadSharedReq_miss_rate::cpu.data     0.641166                       # miss rate for ReadSharedReq accesses
system.l2.ReadSharedReq_miss_rate::total     0.641166                       # miss rate for ReadSharedReq accesses
system.l2.demand_miss_rate::cpu.inst         0.000904                       # miss rate for demand accesses
system.l2.demand_miss_rate::cpu.data         0.640216                       # miss rate for demand accesses
system.l2.demand_miss_rate::total            0.590912                       # miss rate for demand accesses
system.l2.overall_miss_rate::cpu.inst        0.000904                       # miss rate for overall accesses
system.l2.overall_miss_rate::cpu.data        0.640216                       # miss rate for overall accesses
system.l2.overall_miss_rate::total           0.590912                       # miss rate for overall accesses
system.l2.ReadExReq_avg_miss_latency::cpu.data 92551.786856                       # average ReadExReq miss latency
system.l2.ReadExReq_avg_miss_latency::total 92551.786856                       # average ReadExReq miss latency
system.l2.ReadCleanReq_avg_miss_latency::cpu.inst 87755.725191                       # average ReadCleanReq miss latency
system.l2.ReadCleanReq_avg_miss_latency::total 87755.725191                       # average ReadCleanReq miss latency
system.l2.ReadSharedReq_avg_miss_latency::cpu.data 92972.969646                       # average ReadSharedReq miss latency
system.l2.ReadSharedReq_avg_miss_latency::total 92972.969646                       # average ReadSharedReq miss latency
system.l2.demand_avg_miss_latency::cpu.inst 87755.725191                       # average overall miss latency
system.l2.demand_avg_miss_latency::cpu.data 92954.368404                       # average overall miss latency
system.l2.demand_avg_miss_latency::total 92953.754972                       # average overall miss latency
system.l2.overall_avg_miss_latency::cpu.inst 87755.725191                       # average overall miss latency
system.l2.overall_avg_miss_latency::cpu.data 92954.368404                       # average overall miss latency
system.l2.overall_avg_miss_latency::total 92953.754972                       # average overall miss latency
system.l2.blocked_cycles::no_mshrs                  0                       # number of cycles access was blocked
system.l2.blocked_cycles::no_targets                0                       # number of cycles access was blocked
system.l2.blocked::no_mshrs                         0                       # number of cycles access was blocked
system.l2.blocked::no_targets                       0                       # number of cycles access was blocked
system.l2.avg_blocked_cycles::no_mshrs            nan                       # average number of cycles each access was blocked
system.l2.avg_blocked_cycles::no_targets          nan                       # average number of cycles each access was blocked
system.l2.writebacks::writebacks              1232487                       # number of writebacks
system.l2.writebacks::total                   1232487                       # number of writebacks
system.l2.CleanEvict_mshr_misses::writebacks         1561                       # number of CleanEvict MSHR misses
system.l2.CleanEvict_mshr_misses::total          1561                       # number of CleanEvict MSHR misses
system.l2.ReadExReq_mshr_misses::cpu.data       441222                       # number of ReadExReq MSHR misses
system.l2.ReadExReq_mshr_misses::total         441222                       # number of ReadExReq MSHR misses
system.l2.ReadCleanReq_mshr_misses::cpu.inst         1179                       # number of ReadCleanReq MSHR misses
system.l2.ReadCleanReq_mshr_misses::total         1179                       # number of ReadCleanReq MSHR misses
system.l2.ReadSharedReq_mshr_misses::cpu.data      9549246                       # number of ReadSharedReq MSHR misses
system.l2.ReadSharedReq_mshr_misses::total      9549246                       # number of ReadSharedReq MSHR misses
system.l2.demand_mshr_misses::cpu.inst           1179                       # number of demand (read+write) MSHR misses
system.l2.demand_mshr_misses::cpu.data        9990468                       # number of demand (read+write) MSHR misses
system.l2.demand_mshr_misses::total           9991647                       # number of demand (read+write) MSHR misses
system.l2.overall_mshr_misses::cpu.inst          1179                       # number of overall MSHR misses
system.l2.overall_mshr_misses::cpu.data       9990468                       # number of overall MSHR misses
system.l2.overall_mshr_misses::total          9991647                       # number of overall MSHR misses
system.l2.ReadExReq_mshr_miss_latency::cpu.data  36423664500                       # number of ReadExReq MSHR miss cycles
system.l2.ReadExReq_mshr_miss_latency::total  36423664500                       # number of ReadExReq MSHR miss cycles
system.l2.ReadCleanReq_mshr_miss_latency::cpu.inst     91674000                       # number of ReadCleanReq MSHR miss cycles
system.l2.ReadCleanReq_mshr_miss_latency::total     91674000                       # number of ReadCleanReq MSHR miss cycles
system.l2.ReadSharedReq_mshr_miss_latency::cpu.data 792329298500                       # number of ReadSharedReq MSHR miss cycles
system.l2.ReadSharedReq_mshr_miss_latency::total 792329298500                       # number of ReadSharedReq MSHR miss cycles
system.l2.demand_mshr_miss_latency::cpu.inst     91674000                       # number of demand (read+write) MSHR miss cycles
system.l2.demand_mshr_miss_latency::cpu.data 828752963000                       # number of demand (read+write) MSHR miss cycles
system.l2.demand_mshr_miss_latency::total 828844637000                       # number of demand (read+write) MSHR miss cycles
system.l2.overall_mshr_miss_latency::cpu.inst     91674000                       # number of overall MSHR miss cycles
system.l2.overall_mshr_miss_latency::cpu.data 828752963000                       # number of overall MSHR miss cycles
system.l2.overall_mshr_miss_latency::total 828844637000                       # number of overall MSHR miss cycles
system.l2.CleanEvict_mshr_miss_rate::writebacks          inf                       # mshr miss rate for CleanEvict accesses
system.l2.CleanEvict_mshr_miss_rate::total          inf                       # mshr miss rate for CleanEvict accesses
system.l2.ReadExReq_mshr_miss_rate::cpu.data     0.620315                       # mshr miss rate for ReadExReq accesses
system.l2.ReadExReq_mshr_miss_rate::total     0.620315                       # mshr miss rate for ReadExReq accesses
system.l2.ReadCleanReq_mshr_miss_rate::cpu.inst     0.000904                       # mshr miss rate for ReadCleanReq accesses
system.l2.ReadCleanReq_mshr_miss_rate::total     0.000904                       # mshr miss rate for ReadCleanReq accesses
system.l2.ReadSharedReq_mshr_miss_rate::cpu.data     0.641166                       # mshr miss rate for ReadSharedReq accesses
system.l2.ReadSharedReq_mshr_miss_rate::total     0.641166                       # mshr miss rate for ReadSharedReq accesses
system.l2.demand_mshr_miss_rate::cpu.inst     0.000904                       # mshr miss rate for demand accesses
system.l2.demand_mshr_miss_rate::cpu.data     0.640216                       # mshr miss rate for demand accesses
system.l2.demand_mshr_miss_rate::total       0.590912                       # mshr miss rate for demand accesses
system.l2.overall_mshr_miss_rate::cpu.inst     0.000904                       # mshr miss rate for overall accesses
system.l2.overall_mshr_miss_rate::cpu.data     0.640216                       # mshr miss rate for overall accesses
system.l2.overall_mshr_miss_rate::total      0.590912                       # mshr miss rate for overall accesses
system.l2.ReadExReq_avg_mshr_miss_latency::cpu.data 82551.786856                       # average ReadExReq mshr miss latency
system.l2.ReadExReq_avg_mshr_miss_latency::total 82551.786856                       # average ReadExReq mshr miss latency
system.l2.ReadCleanReq_avg_mshr_miss_latency::cpu.inst 77755.725191                       # average ReadCleanReq mshr miss latency
system.l2.ReadCleanReq_avg_mshr_miss_latency::total 77755.725191                       # average ReadCleanReq mshr miss latency
system.l2.ReadSharedReq_avg_mshr_miss_latency::cpu.data 82972.969646                       # average ReadSharedReq mshr miss latency
system.l2.ReadSharedReq_avg_mshr_miss_latency::total 82972.969646                       # average ReadSharedReq mshr miss latency
system.l2.demand_avg_mshr_miss_latency::cpu.inst 77755.725191                       # average overall mshr miss latency
system.l2.demand_avg_mshr_miss_latency::cpu.data 82954.368404                       # average overall mshr miss latency
system.l2.demand_avg_mshr_miss_latency::total 82953.754972                       # average overall mshr miss latency
system.l2.overall_avg_mshr_miss_latency::cpu.inst 77755.725191                       # average overall mshr miss latency
system.l2.overall_avg_mshr_miss_latency::cpu.data 82954.368404                       # average overall mshr miss latency
system.l2.overall_avg_mshr_miss_latency::total 82953.754972                       # average overall mshr miss latency
system.membus.snoop_filter.tot_requests      19950253                       # Total number of requests made to the snoop filter.
system.membus.snoop_filter.hit_single_requests      9958606                       # Number of requests hitting in the snoop filter with a single holder of the requested data.
system.membus.snoop_filter.hit_multi_requests            0                       # Number of requests hitting in the snoop filter with multiple (>1) holders of the requested data.
system.membus.snoop_filter.tot_snoops               0                       # Total number of snoops made to the snoop filter.
system.membus.snoop_filter.hit_single_snoops            0                       # Number of snoops hitting in the snoop filter with a single holder of the requested data.
system.membus.snoop_filter.hit_multi_snoops            0                       # Number of snoops hitting in the snoop filter with multiple (>1) holders of the requested data.
system.membus.pwrStateResidencyTicks::UNDEFINED 1997858182500                       # Cumulative time (in ticks) in various power states
system.membus.trans_dist::ReadResp            9550425                       # Transaction distribution
system.membus.trans_dist::WritebackDirty      1232487                       # Transaction distribution
system.membus.trans_dist::CleanEvict          8726119                       # Transaction distribution
system.membus.trans_dist::ReadExReq            441222                       # Transaction distribution
system.membus.trans_dist::ReadExResp           441222                       # Transaction distribution
system.membus.trans_dist::ReadSharedReq       9550425                       # Transaction distribution
system.membus.pkt_count_system.l2.mem_side::system.mem_ctrls.port     29941900                       # Packet count per connected master and slave (bytes)
system.membus.pkt_count_system.l2.mem_side::total     29941900                       # Packet count per connected master and slave (bytes)
system.membus.pkt_count::total               29941900                       # Packet count per connected master and slave (bytes)
system.membus.pkt_size_system.l2.mem_side::system.mem_ctrls.port    359172288                       # Cumulative packet size per connected master and slave (bytes)
system.membus.pkt_size_system.l2.mem_side::total    359172288                       # Cumulative packet size per connected master and slave (bytes)
system.membus.pkt_size::total               359172288                       # Cumulative packet size per connected master and slave (bytes)
system.membus.snoops                                0                       # Total snoops (count)
system.membus.snoopTraffic                          0                       # Total snoop traffic (bytes)
system.membus.snoop_fanout::samples           9991647                       # Request fanout histogram
system.membus.snoop_fanout::mean                    0                       # Request fanout histogram
system.membus.snoop_fanout::stdev                   0                       # Request fanout histogram
system.membus.snoop_fanout::underflows              0      0.00%      0.00% # Request fanout histogram
system.membus.snoop_fanout::0                 9991647    100.00%    100.00% # Request fanout histogram
system.membus.snoop_fanout::1                       0      0.00%    100.00% # Request fanout histogram
system.membus.snoop_fanout::overflows               0      0.00%    100.00% # Request fanout histogram
system.membus.snoop_fanout::min_value               0                       # Request fanout histogram
system.membus.snoop_fanout::max_value               0                       # Request fanout histogram
system.membus.snoop_fanout::total             9991647                       # Request fanout histogram
system.membus.reqLayer2.occupancy         22427098000                       # Layer occupancy (ticks)
system.membus.reqLayer2.utilization               1.1                       # Layer utilization (%)
system.membus.respLayer1.occupancy        34435084750                       # Layer occupancy (ticks)
system.membus.respLayer1.utilization              1.7                       # Layer utilization (%)
system.tol2bus.snoop_filter.tot_requests     33815440                       # Total number of requests made to the snoop filter.
system.tol2bus.snoop_filter.hit_single_requests     16906568                       # Number of requests hitting in the snoop filter with a single holder of the requested data.
system.tol2bus.snoop_filter.hit_multi_requests            1                       # Number of requests hitting in the snoop filter with multiple (>1) holders of the requested data.
system.tol2bus.snoop_filter.tot_snoops          11647                       # Total number of snoops made to the snoop filter.
system.tol2bus.snoop_filter.hit_single_snoops        11647                       # Number of snoops hitting in the snoop filter with a single holder of the requested data.
system.tol2bus.snoop_filter.hit_multi_snoops            0                       # Number of snoops hitting in the snoop filter with multiple (>1) holders of the requested data.
system.tol2bus.pwrStateResidencyTicks::UNDEFINED 1997858182500                       # Cumulative time (in ticks) in various power states
system.tol2bus.trans_dist::ReadResp          16197585                       # Transaction distribution
system.tol2bus.trans_dist::WritebackDirty      5285623                       # Transaction distribution
system.tol2bus.trans_dist::WritebackClean      1303772                       # Transaction distribution
system.tol2bus.trans_dist::CleanEvict        20285865                       # Transaction distribution
system.tol2bus.trans_dist::ReadExReq           711287                       # Transaction distribution
system.tol2bus.trans_dist::ReadExResp          711287                       # Transaction distribution
system.tol2bus.trans_dist::ReadCleanReq       1304028                       # Transaction distribution
system.tol2bus.trans_dist::ReadSharedReq     14893557                       # Transaction distribution
system.tol2bus.pkt_count_system.cpu.icache.mem_side::system.l2.cpu_side      3911828                       # Packet count per connected master and slave (bytes)
system.tol2bus.pkt_count_system.cpu.dcache.mem_side::system.l2.cpu_side     46812484                       # Packet count per connected master and slave (bytes)
system.tol2bus.pkt_count::total              50724312                       # Packet count per connected master and slave (bytes)
system.tol2bus.pkt_size_system.cpu.icache.mem_side::system.l2.cpu_side     83449600                       # Cumulative packet size per connected master and slave (bytes)
system.tol2bus.pkt_size_system.cpu.dcache.mem_side::system.l2.cpu_side    629055360                       # Cumulative packet size per connected master and slave (bytes)
system.tol2bus.pkt_size::total              712504960                       # Cumulative packet size per connected master and slave (bytes)
system.tol2bus.snoops                         9968692                       # Total snoops (count)
system.tol2bus.snoopTraffic                  39439584                       # Total snoop traffic (bytes)
system.tol2bus.snoop_fanout::samples         26877564                       # Request fanout histogram
system.tol2bus.snoop_fanout::mean            0.000433                       # Request fanout histogram
system.tol2bus.snoop_fanout::stdev           0.020813                       # Request fanout histogram
system.tol2bus.snoop_fanout::underflows             0      0.00%      0.00% # Request fanout histogram
system.tol2bus.snoop_fanout::0               26865916     99.96%     99.96% # Request fanout histogram
system.tol2bus.snoop_fanout::1                  11648      0.04%    100.00% # Request fanout histogram
system.tol2bus.snoop_fanout::2                      0      0.00%    100.00% # Request fanout histogram
system.tol2bus.snoop_fanout::3                      0      0.00%    100.00% # Request fanout histogram
system.tol2bus.snoop_fanout::4                      0      0.00%    100.00% # Request fanout histogram
system.tol2bus.snoop_fanout::overflows              0      0.00%    100.00% # Request fanout histogram
system.tol2bus.snoop_fanout::min_value              0                       # Request fanout histogram
system.tol2bus.snoop_fanout::max_value              1                       # Request fanout histogram
system.tol2bus.snoop_fanout::total           26877564                       # Request fanout histogram
system.tol2bus.reqLayer0.occupancy        19586174000                       # Layer occupancy (ticks)
system.tol2bus.reqLayer0.utilization              1.0                       # Layer utilization (%)
system.tol2bus.respLayer0.occupancy        1304028000                       # Layer occupancy (ticks)
system.tol2bus.respLayer0.utilization             0.1                       # Layer utilization (%)
system.tol2bus.respLayer1.occupancy       15604844000                       # Layer occupancy (ticks)
system.tol2bus.respLayer1.utilization             0.8                       # Layer utilization (%)

---------- End Simulation Statistics   ----------
