
---------- Begin Simulation Statistics ----------
sim_seconds                                  1.095576                       # Number of seconds simulated
sim_ticks                                1095575512500                       # Number of ticks simulated
final_tick                               1095575512500                       # Number of ticks from beginning of simulation (restored from checkpoints and never reset)
sim_freq                                 1000000000000                       # Frequency of simulated ticks
host_inst_rate                                 326660                       # Simulator instruction rate (inst/s)
host_op_rate                                   477217                       # Simulator op (including micro ops) rate (op/s)
host_tick_rate                              715760510                       # Simulator tick rate (ticks/s)
host_mem_usage                                 658992                       # Number of bytes of host memory used
host_seconds                                  1530.65                       # Real time elapsed on the host
sim_insts                                   500000001                       # Number of instructions simulated
sim_ops                                     730450447                       # Number of ops (including micro ops) simulated
system.voltage_domain.voltage                       1                       # Voltage in Volts
system.clk_domain.clock                          1000                       # Clock period in ticks
system.mem_ctrls.pwrStateResidencyTicks::UNDEFINED 1095575512500                       # Cumulative time (in ticks) in various power states
system.mem_ctrls.bytes_read::cpu.inst           58016                       # Number of bytes read from this memory
system.mem_ctrls.bytes_read::cpu.data        31512288                       # Number of bytes read from this memory
system.mem_ctrls.bytes_read::total           31570304                       # Number of bytes read from this memory
system.mem_ctrls.bytes_inst_read::cpu.inst        58016                       # Number of instructions bytes read from this memory
system.mem_ctrls.bytes_inst_read::total         58016                       # Number of instructions bytes read from this memory
system.mem_ctrls.bytes_written::writebacks     17909024                       # Number of bytes written to this memory
system.mem_ctrls.bytes_written::total        17909024                       # Number of bytes written to this memory
system.mem_ctrls.num_reads::cpu.inst             1813                       # Number of read requests responded to by this memory
system.mem_ctrls.num_reads::cpu.data           984759                       # Number of read requests responded to by this memory
system.mem_ctrls.num_reads::total              986572                       # Number of read requests responded to by this memory
system.mem_ctrls.num_writes::writebacks        559657                       # Number of write requests responded to by this memory
system.mem_ctrls.num_writes::total             559657                       # Number of write requests responded to by this memory
system.mem_ctrls.bw_read::cpu.inst              52955                       # Total read bandwidth from this memory (bytes/s)
system.mem_ctrls.bw_read::cpu.data           28763228                       # Total read bandwidth from this memory (bytes/s)
system.mem_ctrls.bw_read::total              28816183                       # Total read bandwidth from this memory (bytes/s)
system.mem_ctrls.bw_inst_read::cpu.inst         52955                       # Instruction read bandwidth from this memory (bytes/s)
system.mem_ctrls.bw_inst_read::total            52955                       # Instruction read bandwidth from this memory (bytes/s)
system.mem_ctrls.bw_write::writebacks        16346682                       # Write bandwidth from this memory (bytes/s)
system.mem_ctrls.bw_write::total             16346682                       # Write bandwidth from this memory (bytes/s)
system.mem_ctrls.bw_total::writebacks        16346682                       # Total bandwidth to/from this memory (bytes/s)
system.mem_ctrls.bw_total::cpu.inst             52955                       # Total bandwidth to/from this memory (bytes/s)
system.mem_ctrls.bw_total::cpu.data          28763228                       # Total bandwidth to/from this memory (bytes/s)
system.mem_ctrls.bw_total::total             45162864                       # Total bandwidth to/from this memory (bytes/s)
system.mem_ctrls.readReqs                      986572                       # Number of read requests accepted
system.mem_ctrls.writeReqs                     559657                       # Number of write requests accepted
system.mem_ctrls.readBursts                    986572                       # Number of DRAM read bursts, including those serviced by the write queue
system.mem_ctrls.writeBursts                   559657                       # Number of DRAM write bursts, including those merged in the write queue
system.mem_ctrls.bytesReadDRAM               63113856                       # Total number of bytes read from DRAM
system.mem_ctrls.bytesReadWrQ                   26752                       # Total number of bytes read from write queue
system.mem_ctrls.bytesWritten                31632192                       # Total number of bytes written to DRAM
system.mem_ctrls.bytesReadSys                31570304                       # Total read bytes from the system interface side
system.mem_ctrls.bytesWrittenSys             17909024                       # Total written bytes from the system interface side
system.mem_ctrls.servicedByWrQ                    418                       # Number of DRAM read bursts serviced by the write queue
system.mem_ctrls.mergedWrBursts                 65373                       # Number of DRAM write bursts merged with an existing one
system.mem_ctrls.neitherReadNorWriteReqs            0                       # Number of requests that are neither read nor write
system.mem_ctrls.perBankRdBursts::0             64474                       # Per bank write bursts
system.mem_ctrls.perBankRdBursts::1             62477                       # Per bank write bursts
system.mem_ctrls.perBankRdBursts::2             61030                       # Per bank write bursts
system.mem_ctrls.perBankRdBursts::3             60463                       # Per bank write bursts
system.mem_ctrls.perBankRdBursts::4             59666                       # Per bank write bursts
system.mem_ctrls.perBankRdBursts::5             60148                       # Per bank write bursts
system.mem_ctrls.perBankRdBursts::6             62127                       # Per bank write bursts
system.mem_ctrls.perBankRdBursts::7             61176                       # Per bank write bursts
system.mem_ctrls.perBankRdBursts::8             58798                       # Per bank write bursts
system.mem_ctrls.perBankRdBursts::9             57860                       # Per bank write bursts
system.mem_ctrls.perBankRdBursts::10            61088                       # Per bank write bursts
system.mem_ctrls.perBankRdBursts::11            62658                       # Per bank write bursts
system.mem_ctrls.perBankRdBursts::12            63514                       # Per bank write bursts
system.mem_ctrls.perBankRdBursts::13            62861                       # Per bank write bursts
system.mem_ctrls.perBankRdBursts::14            63687                       # Per bank write bursts
system.mem_ctrls.perBankRdBursts::15            64127                       # Per bank write bursts
system.mem_ctrls.perBankWrBursts::0             32300                       # Per bank write bursts
system.mem_ctrls.perBankWrBursts::1             31252                       # Per bank write bursts
system.mem_ctrls.perBankWrBursts::2             30298                       # Per bank write bursts
system.mem_ctrls.perBankWrBursts::3             29975                       # Per bank write bursts
system.mem_ctrls.perBankWrBursts::4             29395                       # Per bank write bursts
system.mem_ctrls.perBankWrBursts::5             29275                       # Per bank write bursts
system.mem_ctrls.perBankWrBursts::6             30098                       # Per bank write bursts
system.mem_ctrls.perBankWrBursts::7             30295                       # Per bank write bursts
system.mem_ctrls.perBankWrBursts::8             30332                       # Per bank write bursts
system.mem_ctrls.perBankWrBursts::9             30178                       # Per bank write bursts
system.mem_ctrls.perBankWrBursts::10            31060                       # Per bank write bursts
system.mem_ctrls.perBankWrBursts::11            31295                       # Per bank write bursts
system.mem_ctrls.perBankWrBursts::12            31725                       # Per bank write bursts
system.mem_ctrls.perBankWrBursts::13            32063                       # Per bank write bursts
system.mem_ctrls.perBankWrBursts::14            32426                       # Per bank write bursts
system.mem_ctrls.perBankWrBursts::15            32286                       # Per bank write bursts
system.mem_ctrls.numRdRetry                         0                       # Number of times read queue was full causing retry
system.mem_ctrls.numWrRetry                         0                       # Number of times write queue was full causing retry
system.mem_ctrls.totGap                  1095572267500                       # Total gap between requests
system.mem_ctrls.readPktSize::0                     0                       # Read request sizes (log2)
system.mem_ctrls.readPktSize::1                     0                       # Read request sizes (log2)
system.mem_ctrls.readPktSize::2                     0                       # Read request sizes (log2)
system.mem_ctrls.readPktSize::3                     0                       # Read request sizes (log2)
system.mem_ctrls.readPktSize::4                     0                       # Read request sizes (log2)
system.mem_ctrls.readPktSize::5                986572                       # Read request sizes (log2)
system.mem_ctrls.readPktSize::6                     0                       # Read request sizes (log2)
system.mem_ctrls.writePktSize::0                    0                       # Write request sizes (log2)
system.mem_ctrls.writePktSize::1                    0                       # Write request sizes (log2)
system.mem_ctrls.writePktSize::2                    0                       # Write request sizes (log2)
system.mem_ctrls.writePktSize::3                    0                       # Write request sizes (log2)
system.mem_ctrls.writePktSize::4                    0                       # Write request sizes (log2)
system.mem_ctrls.writePktSize::5               559657                       # Write request sizes (log2)
system.mem_ctrls.writePktSize::6                    0                       # Write request sizes (log2)
system.mem_ctrls.rdQLenPdf::0                  969697                       # What read queue length does an incoming req see
system.mem_ctrls.rdQLenPdf::1                    8178                       # What read queue length does an incoming req see
system.mem_ctrls.rdQLenPdf::2                    8265                       # What read queue length does an incoming req see
system.mem_ctrls.rdQLenPdf::3                      14                       # What read queue length does an incoming req see
system.mem_ctrls.rdQLenPdf::4                       0                       # What read queue length does an incoming req see
system.mem_ctrls.rdQLenPdf::5                       0                       # What read queue length does an incoming req see
system.mem_ctrls.rdQLenPdf::6                       0                       # What read queue length does an incoming req see
system.mem_ctrls.rdQLenPdf::7                       0                       # What read queue length does an incoming req see
system.mem_ctrls.rdQLenPdf::8                       0                       # What read queue length does an incoming req see
system.mem_ctrls.rdQLenPdf::9                       0                       # What read queue length does an incoming req see
system.mem_ctrls.rdQLenPdf::10                      0                       # What read queue length does an incoming req see
system.mem_ctrls.rdQLenPdf::11                      0                       # What read queue length does an incoming req see
system.mem_ctrls.rdQLenPdf::12                      0                       # What read queue length does an incoming req see
system.mem_ctrls.rdQLenPdf::13                      0                       # What read queue length does an incoming req see
system.mem_ctrls.rdQLenPdf::14                      0                       # What read queue length does an incoming req see
system.mem_ctrls.rdQLenPdf::15                      0                       # What read queue length does an incoming req see
system.mem_ctrls.rdQLenPdf::16                      0                       # What read queue length does an incoming req see
system.mem_ctrls.rdQLenPdf::17                      0                       # What read queue length does an incoming req see
system.mem_ctrls.rdQLenPdf::18                      0                       # What read queue length does an incoming req see
system.mem_ctrls.rdQLenPdf::19                      0                       # What read queue length does an incoming req see
system.mem_ctrls.rdQLenPdf::20                      0                       # What read queue length does an incoming req see
system.mem_ctrls.rdQLenPdf::21                      0                       # What read queue length does an incoming req see
system.mem_ctrls.rdQLenPdf::22                      0                       # What read queue length does an incoming req see
system.mem_ctrls.rdQLenPdf::23                      0                       # What read queue length does an incoming req see
system.mem_ctrls.rdQLenPdf::24                      0                       # What read queue length does an incoming req see
system.mem_ctrls.rdQLenPdf::25                      0                       # What read queue length does an incoming req see
system.mem_ctrls.rdQLenPdf::26                      0                       # What read queue length does an incoming req see
system.mem_ctrls.rdQLenPdf::27                      0                       # What read queue length does an incoming req see
system.mem_ctrls.rdQLenPdf::28                      0                       # What read queue length does an incoming req see
system.mem_ctrls.rdQLenPdf::29                      0                       # What read queue length does an incoming req see
system.mem_ctrls.rdQLenPdf::30                      0                       # What read queue length does an incoming req see
system.mem_ctrls.rdQLenPdf::31                      0                       # What read queue length does an incoming req see
system.mem_ctrls.wrQLenPdf::0                       1                       # What write queue length does an incoming req see
system.mem_ctrls.wrQLenPdf::1                       1                       # What write queue length does an incoming req see
system.mem_ctrls.wrQLenPdf::2                       1                       # What write queue length does an incoming req see
system.mem_ctrls.wrQLenPdf::3                       1                       # What write queue length does an incoming req see
system.mem_ctrls.wrQLenPdf::4                       1                       # What write queue length does an incoming req see
system.mem_ctrls.wrQLenPdf::5                       1                       # What write queue length does an incoming req see
system.mem_ctrls.wrQLenPdf::6                       1                       # What write queue length does an incoming req see
system.mem_ctrls.wrQLenPdf::7                       1                       # What write queue length does an incoming req see
system.mem_ctrls.wrQLenPdf::8                       1                       # What write queue length does an incoming req see
system.mem_ctrls.wrQLenPdf::9                       1                       # What write queue length does an incoming req see
system.mem_ctrls.wrQLenPdf::10                      1                       # What write queue length does an incoming req see
system.mem_ctrls.wrQLenPdf::11                      1                       # What write queue length does an incoming req see
system.mem_ctrls.wrQLenPdf::12                      1                       # What write queue length does an incoming req see
system.mem_ctrls.wrQLenPdf::13                      1                       # What write queue length does an incoming req see
system.mem_ctrls.wrQLenPdf::14                      1                       # What write queue length does an incoming req see
system.mem_ctrls.wrQLenPdf::15                  15997                       # What write queue length does an incoming req see
system.mem_ctrls.wrQLenPdf::16                  17273                       # What write queue length does an incoming req see
system.mem_ctrls.wrQLenPdf::17                  28823                       # What write queue length does an incoming req see
system.mem_ctrls.wrQLenPdf::18                  28810                       # What write queue length does an incoming req see
system.mem_ctrls.wrQLenPdf::19                  28811                       # What write queue length does an incoming req see
system.mem_ctrls.wrQLenPdf::20                  28811                       # What write queue length does an incoming req see
system.mem_ctrls.wrQLenPdf::21                  28811                       # What write queue length does an incoming req see
system.mem_ctrls.wrQLenPdf::22                  28811                       # What write queue length does an incoming req see
system.mem_ctrls.wrQLenPdf::23                  28811                       # What write queue length does an incoming req see
system.mem_ctrls.wrQLenPdf::24                  28811                       # What write queue length does an incoming req see
system.mem_ctrls.wrQLenPdf::25                  28815                       # What write queue length does an incoming req see
system.mem_ctrls.wrQLenPdf::26                  28812                       # What write queue length does an incoming req see
system.mem_ctrls.wrQLenPdf::27                  28811                       # What write queue length does an incoming req see
system.mem_ctrls.wrQLenPdf::28                  28811                       # What write queue length does an incoming req see
system.mem_ctrls.wrQLenPdf::29                  28813                       # What write queue length does an incoming req see
system.mem_ctrls.wrQLenPdf::30                  28816                       # What write queue length does an incoming req see
system.mem_ctrls.wrQLenPdf::31                  28811                       # What write queue length does an incoming req see
system.mem_ctrls.wrQLenPdf::32                  28811                       # What write queue length does an incoming req see
system.mem_ctrls.wrQLenPdf::33                      0                       # What write queue length does an incoming req see
system.mem_ctrls.wrQLenPdf::34                      0                       # What write queue length does an incoming req see
system.mem_ctrls.wrQLenPdf::35                      0                       # What write queue length does an incoming req see
system.mem_ctrls.wrQLenPdf::36                      0                       # What write queue length does an incoming req see
system.mem_ctrls.wrQLenPdf::37                      0                       # What write queue length does an incoming req see
system.mem_ctrls.wrQLenPdf::38                      0                       # What write queue length does an incoming req see
system.mem_ctrls.wrQLenPdf::39                      0                       # What write queue length does an incoming req see
system.mem_ctrls.wrQLenPdf::40                      0                       # What write queue length does an incoming req see
system.mem_ctrls.wrQLenPdf::41                      0                       # What write queue length does an incoming req see
system.mem_ctrls.wrQLenPdf::42                      0                       # What write queue length does an incoming req see
system.mem_ctrls.wrQLenPdf::43                      0                       # What write queue length does an incoming req see
system.mem_ctrls.wrQLenPdf::44                      0                       # What write queue length does an incoming req see
system.mem_ctrls.wrQLenPdf::45                      0                       # What write queue length does an incoming req see
system.mem_ctrls.wrQLenPdf::46                      0                       # What write queue length does an incoming req see
system.mem_ctrls.wrQLenPdf::47                      0                       # What write queue length does an incoming req see
system.mem_ctrls.wrQLenPdf::48                      0                       # What write queue length does an incoming req see
system.mem_ctrls.wrQLenPdf::49                      0                       # What write queue length does an incoming req see
system.mem_ctrls.wrQLenPdf::50                      0                       # What write queue length does an incoming req see
system.mem_ctrls.wrQLenPdf::51                      0                       # What write queue length does an incoming req see
system.mem_ctrls.wrQLenPdf::52                      0                       # What write queue length does an incoming req see
system.mem_ctrls.wrQLenPdf::53                      0                       # What write queue length does an incoming req see
system.mem_ctrls.wrQLenPdf::54                      0                       # What write queue length does an incoming req see
system.mem_ctrls.wrQLenPdf::55                      0                       # What write queue length does an incoming req see
system.mem_ctrls.wrQLenPdf::56                      0                       # What write queue length does an incoming req see
system.mem_ctrls.wrQLenPdf::57                      0                       # What write queue length does an incoming req see
system.mem_ctrls.wrQLenPdf::58                      0                       # What write queue length does an incoming req see
system.mem_ctrls.wrQLenPdf::59                      0                       # What write queue length does an incoming req see
system.mem_ctrls.wrQLenPdf::60                      0                       # What write queue length does an incoming req see
system.mem_ctrls.wrQLenPdf::61                      0                       # What write queue length does an incoming req see
system.mem_ctrls.wrQLenPdf::62                      0                       # What write queue length does an incoming req see
system.mem_ctrls.wrQLenPdf::63                      0                       # What write queue length does an incoming req see
system.mem_ctrls.bytesPerActivate::samples       749928                       # Bytes accessed per row activation
system.mem_ctrls.bytesPerActivate::mean    126.340107                       # Bytes accessed per row activation
system.mem_ctrls.bytesPerActivate::gmean    91.272755                       # Bytes accessed per row activation
system.mem_ctrls.bytesPerActivate::stdev   162.127618                       # Bytes accessed per row activation
system.mem_ctrls.bytesPerActivate::0-127       530796     70.78%     70.78% # Bytes accessed per row activation
system.mem_ctrls.bytesPerActivate::128-255       140624     18.75%     89.53% # Bytes accessed per row activation
system.mem_ctrls.bytesPerActivate::256-383        30013      4.00%     93.53% # Bytes accessed per row activation
system.mem_ctrls.bytesPerActivate::384-511        11685      1.56%     95.09% # Bytes accessed per row activation
system.mem_ctrls.bytesPerActivate::512-639        16341      2.18%     97.27% # Bytes accessed per row activation
system.mem_ctrls.bytesPerActivate::640-767         4867      0.65%     97.92% # Bytes accessed per row activation
system.mem_ctrls.bytesPerActivate::768-895         1684      0.22%     98.14% # Bytes accessed per row activation
system.mem_ctrls.bytesPerActivate::896-1023         1274      0.17%     98.31% # Bytes accessed per row activation
system.mem_ctrls.bytesPerActivate::1024-1151        12644      1.69%    100.00% # Bytes accessed per row activation
system.mem_ctrls.bytesPerActivate::total       749928                       # Bytes accessed per row activation
system.mem_ctrls.rdPerTurnAround::samples        28810                       # Reads before turning the bus around for writes
system.mem_ctrls.rdPerTurnAround::mean      33.948664                       # Reads before turning the bus around for writes
system.mem_ctrls.rdPerTurnAround::gmean     26.489705                       # Reads before turning the bus around for writes
system.mem_ctrls.rdPerTurnAround::stdev    305.206853                       # Reads before turning the bus around for writes
system.mem_ctrls.rdPerTurnAround::0-2047        28797     99.95%     99.95% # Reads before turning the bus around for writes
system.mem_ctrls.rdPerTurnAround::2048-4095            5      0.02%     99.97% # Reads before turning the bus around for writes
system.mem_ctrls.rdPerTurnAround::4096-6143            4      0.01%     99.99% # Reads before turning the bus around for writes
system.mem_ctrls.rdPerTurnAround::8192-10239            2      0.01%     99.99% # Reads before turning the bus around for writes
system.mem_ctrls.rdPerTurnAround::10240-12287            1      0.00%    100.00% # Reads before turning the bus around for writes
system.mem_ctrls.rdPerTurnAround::47104-49151            1      0.00%    100.00% # Reads before turning the bus around for writes
system.mem_ctrls.rdPerTurnAround::total         28810                       # Reads before turning the bus around for writes
system.mem_ctrls.wrPerTurnAround::samples        28810                       # Writes before turning the bus around for reads
system.mem_ctrls.wrPerTurnAround::mean      17.155606                       # Writes before turning the bus around for reads
system.mem_ctrls.wrPerTurnAround::gmean     17.128052                       # Writes before turning the bus around for reads
system.mem_ctrls.wrPerTurnAround::stdev      0.966218                       # Writes before turning the bus around for reads
system.mem_ctrls.wrPerTurnAround::16            11534     40.03%     40.03% # Writes before turning the bus around for reads
system.mem_ctrls.wrPerTurnAround::17             1280      4.44%     44.48% # Writes before turning the bus around for reads
system.mem_ctrls.wrPerTurnAround::18            15975     55.45%     99.93% # Writes before turning the bus around for reads
system.mem_ctrls.wrPerTurnAround::19               21      0.07%    100.00% # Writes before turning the bus around for reads
system.mem_ctrls.wrPerTurnAround::total         28810                       # Writes before turning the bus around for reads
system.mem_ctrls.totQLat                  26078759500                       # Total ticks spent queuing
system.mem_ctrls.totMemAccLat             44569147000                       # Total ticks spent from burst creation until serviced by the DRAM
system.mem_ctrls.totBusLat                 4930770000                       # Total ticks spent in databus transfers
system.mem_ctrls.avgQLat                     26444.92                       # Average queueing delay per DRAM burst
system.mem_ctrls.avgBusLat                    5000.00                       # Average bus latency per DRAM burst
system.mem_ctrls.avgMemAccLat                45194.92                       # Average memory access latency per DRAM burst
system.mem_ctrls.avgRdBW                        57.61                       # Average DRAM read bandwidth in MiByte/s
system.mem_ctrls.avgWrBW                        28.87                       # Average achieved write bandwidth in MiByte/s
system.mem_ctrls.avgRdBWSys                     28.82                       # Average system read bandwidth in MiByte/s
system.mem_ctrls.avgWrBWSys                     16.35                       # Average system write bandwidth in MiByte/s
system.mem_ctrls.peakBW                      12800.00                       # Theoretical peak bandwidth in MiByte/s
system.mem_ctrls.busUtil                         0.68                       # Data bus utilization in percentage
system.mem_ctrls.busUtilRead                     0.45                       # Data bus utilization in percentage for reads
system.mem_ctrls.busUtilWrite                    0.23                       # Data bus utilization in percentage for writes
system.mem_ctrls.avgRdQLen                       1.00                       # Average read queue length when enqueuing
system.mem_ctrls.avgWrQLen                      25.29                       # Average write queue length when enqueuing
system.mem_ctrls.readRowHits                   530778                       # Number of row buffer hits during reads
system.mem_ctrls.writeRowHits                  199700                       # Number of row buffer hits during writes
system.mem_ctrls.readRowHitRate                 53.82                       # Row buffer hit rate for reads
system.mem_ctrls.writeRowHitRate                40.40                       # Row buffer hit rate for writes
system.mem_ctrls.avgGap                     708544.64                       # Average gap between requests
system.mem_ctrls.pageHitRate                    49.34                       # Row buffer hit rate, read and write combined
system.mem_ctrls_0.actEnergy               2649425520                       # Energy for activate commands per rank (pJ)
system.mem_ctrls_0.preEnergy               1408199265                       # Energy for precharge commands per rank (pJ)
system.mem_ctrls_0.readEnergy              3509745540                       # Energy for read commands per rank (pJ)
system.mem_ctrls_0.writeEnergy             1267875360                       # Energy for write commands per rank (pJ)
system.mem_ctrls_0.refreshEnergy         42319193280.000008                       # Energy for refresh commands per rank (pJ)
system.mem_ctrls_0.actBackEnergy          24966692550                       # Energy for active background per rank (pJ)
system.mem_ctrls_0.preBackEnergy           1580326560                       # Energy for precharge background per rank (pJ)
system.mem_ctrls_0.actPowerDownEnergy    143877643260                       # Energy for active power-down per rank (pJ)
system.mem_ctrls_0.prePowerDownEnergy     42756458880                       # Energy for precharge power-down per rank (pJ)
system.mem_ctrls_0.selfRefreshEnergy     150201766185                       # Energy for self refresh per rank (pJ)
system.mem_ctrls_0.totalEnergy           414547708710                       # Total energy per rank (pJ)
system.mem_ctrls_0.averagePower            378.383510                       # Core power per rank (mW)
system.mem_ctrls_0.totalIdleTime         1036684057750                       # Total Idle time Per DRAM Rank
system.mem_ctrls_0.memoryStateTime::IDLE   2219327250                       # Time in different power states
system.mem_ctrls_0.memoryStateTime::REF   17944126000                       # Time in different power states
system.mem_ctrls_0.memoryStateTime::SREF 609819400000                       # Time in different power states
system.mem_ctrls_0.memoryStateTime::PRE_PDN 111344012000                       # Time in different power states
system.mem_ctrls_0.memoryStateTime::ACT   38725330500                       # Time in different power states
system.mem_ctrls_0.memoryStateTime::ACT_PDN 315523316750                       # Time in different power states
system.mem_ctrls_1.actEnergy               2705067540                       # Energy for activate commands per rank (pJ)
system.mem_ctrls_1.preEnergy               1437777495                       # Energy for precharge commands per rank (pJ)
system.mem_ctrls_1.readEnergy              3531394020                       # Energy for read commands per rank (pJ)
system.mem_ctrls_1.writeEnergy             1312125300                       # Energy for write commands per rank (pJ)
system.mem_ctrls_1.refreshEnergy         42257729280.000008                       # Energy for refresh commands per rank (pJ)
system.mem_ctrls_1.actBackEnergy          25033625370                       # Energy for active background per rank (pJ)
system.mem_ctrls_1.preBackEnergy           1585452480                       # Energy for precharge background per rank (pJ)
system.mem_ctrls_1.actPowerDownEnergy    142719614730                       # Energy for active power-down per rank (pJ)
system.mem_ctrls_1.prePowerDownEnergy     43161407520                       # Energy for precharge power-down per rank (pJ)
system.mem_ctrls_1.selfRefreshEnergy     150560769420                       # Energy for self refresh per rank (pJ)
system.mem_ctrls_1.totalEnergy           414315204855                       # Total energy per rank (pJ)
system.mem_ctrls_1.averagePower            378.171288                       # Core power per rank (mW)
system.mem_ctrls_1.totalIdleTime         1036488588000                       # Total Idle time Per DRAM Rank
system.mem_ctrls_1.memoryStateTime::IDLE   2220858000                       # Time in different power states
system.mem_ctrls_1.memoryStateTime::REF   17918642000                       # Time in different power states
system.mem_ctrls_1.memoryStateTime::SREF 611144491250                       # Time in different power states
system.mem_ctrls_1.memoryStateTime::PRE_PDN 112398716250                       # Time in different power states
system.mem_ctrls_1.memoryStateTime::ACT   38909209500                       # Time in different power states
system.mem_ctrls_1.memoryStateTime::ACT_PDN 312983595500                       # Time in different power states
system.pwrStateResidencyTicks::UNDEFINED 1095575512500                       # Cumulative time (in ticks) in various power states
system.cpu_voltage_domain.voltage                   1                       # Voltage in Volts
system.cpu_clk_domain.clock                       500                       # Clock period in ticks
system.cpu.dtb.walker.pwrStateResidencyTicks::UNDEFINED 1095575512500                       # Cumulative time (in ticks) in various power states
system.cpu.apic_clk_domain.clock                 8000                       # Clock period in ticks
system.cpu.interrupts.pwrStateResidencyTicks::UNDEFINED 1095575512500                       # Cumulative time (in ticks) in various power states
system.cpu.itb.walker.pwrStateResidencyTicks::UNDEFINED 1095575512500                       # Cumulative time (in ticks) in various power states
system.cpu.workload.num_syscalls                   86                       # Number of system calls
system.cpu.pwrStateResidencyTicks::ON    1095575512500                       # Cumulative time (in ticks) in various power states
system.cpu.numCycles                       2191151025                       # number of cpu cycles simulated
system.cpu.numWorkItemsStarted                      0                       # number of work items this cpu started
system.cpu.numWorkItemsCompleted                    0                       # number of work items this cpu completed
system.cpu.committedInsts                   500000001                       # Number of instructions committed
system.cpu.committedOps                     730450447                       # Number of ops (including micro ops) committed
system.cpu.num_int_alu_accesses             729688906                       # Number of integer alu accesses
system.cpu.num_fp_alu_accesses                    663                       # Number of float alu accesses
system.cpu.num_func_calls                     1453961                       # number of times a function call or return occured
system.cpu.num_conditional_control_insts     31770496                       # number of instructions that are conditional controls
system.cpu.num_int_insts                    729688906                       # number of integer instructions
system.cpu.num_fp_insts                           663                       # number of float instructions
system.cpu.num_int_register_reads          1698743411                       # number of times the integer registers were read
system.cpu.num_int_register_writes          621892950                       # number of times the integer registers were written
system.cpu.num_fp_register_reads                 1009                       # number of times the floating registers were read
system.cpu.num_fp_register_writes                 429                       # number of times the floating registers were written
system.cpu.num_cc_register_reads            180840559                       # number of times the CC registers were read
system.cpu.num_cc_register_writes           276245121                       # number of times the CC registers were written
system.cpu.num_mem_refs                     295985461                       # number of memory refs
system.cpu.num_load_insts                   225946751                       # Number of load instructions
system.cpu.num_store_insts                   70038710                       # Number of store instructions
system.cpu.num_idle_cycles                          0                       # Number of idle cycles
system.cpu.num_busy_cycles                 2191151025                       # Number of busy cycles
system.cpu.not_idle_fraction                        1                       # Percentage of non-idle cycles
system.cpu.idle_fraction                            0                       # Percentage of idle cycles
system.cpu.Branches                          37843296                       # Number of branches fetched
system.cpu.op_class::No_OpClass                 94740      0.01%      0.01% # Class of executed instruction
system.cpu.op_class::IntAlu                 434349067     59.46%     59.48% # Class of executed instruction
system.cpu.op_class::IntMult                    20662      0.00%     59.48% # Class of executed instruction
system.cpu.op_class::IntDiv                       119      0.00%     59.48% # Class of executed instruction
system.cpu.op_class::FloatAdd                     398      0.00%     59.48% # Class of executed instruction
system.cpu.op_class::FloatCmp                       0      0.00%     59.48% # Class of executed instruction
system.cpu.op_class::FloatCvt                       0      0.00%     59.48% # Class of executed instruction
system.cpu.op_class::FloatMult                      0      0.00%     59.48% # Class of executed instruction
system.cpu.op_class::FloatDiv                       0      0.00%     59.48% # Class of executed instruction
system.cpu.op_class::FloatSqrt                      0      0.00%     59.48% # Class of executed instruction
system.cpu.op_class::SimdAdd                        0      0.00%     59.48% # Class of executed instruction
system.cpu.op_class::SimdAddAcc                     0      0.00%     59.48% # Class of executed instruction
system.cpu.op_class::SimdAlu                        0      0.00%     59.48% # Class of executed instruction
system.cpu.op_class::SimdCmp                        0      0.00%     59.48% # Class of executed instruction
system.cpu.op_class::SimdCvt                        0      0.00%     59.48% # Class of executed instruction
system.cpu.op_class::SimdMisc                       0      0.00%     59.48% # Class of executed instruction
system.cpu.op_class::SimdMult                       0      0.00%     59.48% # Class of executed instruction
system.cpu.op_class::SimdMultAcc                    0      0.00%     59.48% # Class of executed instruction
system.cpu.op_class::SimdShift                      0      0.00%     59.48% # Class of executed instruction
system.cpu.op_class::SimdShiftAcc                   0      0.00%     59.48% # Class of executed instruction
system.cpu.op_class::SimdSqrt                       0      0.00%     59.48% # Class of executed instruction
system.cpu.op_class::SimdFloatAdd                   0      0.00%     59.48% # Class of executed instruction
system.cpu.op_class::SimdFloatAlu                   0      0.00%     59.48% # Class of executed instruction
system.cpu.op_class::SimdFloatCmp                   0      0.00%     59.48% # Class of executed instruction
system.cpu.op_class::SimdFloatCvt                   0      0.00%     59.48% # Class of executed instruction
system.cpu.op_class::SimdFloatDiv                   0      0.00%     59.48% # Class of executed instruction
system.cpu.op_class::SimdFloatMisc                  0      0.00%     59.48% # Class of executed instruction
system.cpu.op_class::SimdFloatMult                  0      0.00%     59.48% # Class of executed instruction
system.cpu.op_class::SimdFloatMultAcc               0      0.00%     59.48% # Class of executed instruction
system.cpu.op_class::SimdFloatSqrt                  0      0.00%     59.48% # Class of executed instruction
system.cpu.op_class::MemRead                225946751     30.93%     90.41% # Class of executed instruction
system.cpu.op_class::MemWrite                70038710      9.59%    100.00% # Class of executed instruction
system.cpu.op_class::IprAccess                      0      0.00%    100.00% # Class of executed instruction
system.cpu.op_class::InstPrefetch                   0      0.00%    100.00% # Class of executed instruction
system.cpu.op_class::total                  730450447                       # Class of executed instruction
system.cpu.dcache.tags.pwrStateResidencyTicks::UNDEFINED 1095575512500                       # Cumulative time (in ticks) in various power states
system.cpu.dcache.tags.replacements           2422595                       # number of replacements
system.cpu.dcache.tags.tagsinuse          4083.069578                       # Cycle average of tags in use
system.cpu.dcache.tags.total_refs           293558783                       # Total number of references to valid blocks.
system.cpu.dcache.tags.sampled_refs           2426691                       # Sample count of references to valid blocks.
system.cpu.dcache.tags.avg_refs            120.970813                       # Average number of references to valid blocks.
system.cpu.dcache.tags.warmup_cycle        3963976500                       # Cycle when the warmup percentage was hit.
system.cpu.dcache.tags.occ_blocks::cpu.data  4083.069578                       # Average occupied blocks per requestor
system.cpu.dcache.tags.occ_percent::cpu.data     0.996843                       # Average percentage of cache occupancy
system.cpu.dcache.tags.occ_percent::total     0.996843                       # Average percentage of cache occupancy
system.cpu.dcache.tags.occ_task_id_blocks::1024         4096                       # Occupied blocks per task id
system.cpu.dcache.tags.age_task_id_blocks_1024::0            1                       # Occupied blocks per task id
system.cpu.dcache.tags.age_task_id_blocks_1024::1            3                       # Occupied blocks per task id
system.cpu.dcache.tags.age_task_id_blocks_1024::2           32                       # Occupied blocks per task id
system.cpu.dcache.tags.age_task_id_blocks_1024::3         2848                       # Occupied blocks per task id
system.cpu.dcache.tags.age_task_id_blocks_1024::4         1212                       # Occupied blocks per task id
system.cpu.dcache.tags.occ_task_id_percent::1024            1                       # Percentage of cache occupancy per task id
system.cpu.dcache.tags.tag_accesses         594397639                       # Number of tag accesses
system.cpu.dcache.tags.data_accesses        594397639                       # Number of data accesses
system.cpu.dcache.pwrStateResidencyTicks::UNDEFINED 1095575512500                       # Cumulative time (in ticks) in various power states
system.cpu.dcache.ReadReq_hits::cpu.data    224231623                       # number of ReadReq hits
system.cpu.dcache.ReadReq_hits::total       224231623                       # number of ReadReq hits
system.cpu.dcache.WriteReq_hits::cpu.data     69327160                       # number of WriteReq hits
system.cpu.dcache.WriteReq_hits::total       69327160                       # number of WriteReq hits
system.cpu.dcache.demand_hits::cpu.data     293558783                       # number of demand (read+write) hits
system.cpu.dcache.demand_hits::total        293558783                       # number of demand (read+write) hits
system.cpu.dcache.overall_hits::cpu.data    293558783                       # number of overall hits
system.cpu.dcache.overall_hits::total       293558783                       # number of overall hits
system.cpu.dcache.ReadReq_misses::cpu.data      1698755                       # number of ReadReq misses
system.cpu.dcache.ReadReq_misses::total       1698755                       # number of ReadReq misses
system.cpu.dcache.WriteReq_misses::cpu.data       711552                       # number of WriteReq misses
system.cpu.dcache.WriteReq_misses::total       711552                       # number of WriteReq misses
system.cpu.dcache.SoftPFReq_misses::cpu.data        16384                       # number of SoftPFReq misses
system.cpu.dcache.SoftPFReq_misses::total        16384                       # number of SoftPFReq misses
system.cpu.dcache.demand_misses::cpu.data      2410307                       # number of demand (read+write) misses
system.cpu.dcache.demand_misses::total        2410307                       # number of demand (read+write) misses
system.cpu.dcache.overall_misses::cpu.data      2426691                       # number of overall misses
system.cpu.dcache.overall_misses::total       2426691                       # number of overall misses
system.cpu.dcache.ReadReq_miss_latency::cpu.data  65569195000                       # number of ReadReq miss cycles
system.cpu.dcache.ReadReq_miss_latency::total  65569195000                       # number of ReadReq miss cycles
system.cpu.dcache.WriteReq_miss_latency::cpu.data  48869196500                       # number of WriteReq miss cycles
system.cpu.dcache.WriteReq_miss_latency::total  48869196500                       # number of WriteReq miss cycles
system.cpu.dcache.demand_miss_latency::cpu.data 114438391500                       # number of demand (read+write) miss cycles
system.cpu.dcache.demand_miss_latency::total 114438391500                       # number of demand (read+write) miss cycles
system.cpu.dcache.overall_miss_latency::cpu.data 114438391500                       # number of overall miss cycles
system.cpu.dcache.overall_miss_latency::total 114438391500                       # number of overall miss cycles
system.cpu.dcache.ReadReq_accesses::cpu.data    225930378                       # number of ReadReq accesses(hits+misses)
system.cpu.dcache.ReadReq_accesses::total    225930378                       # number of ReadReq accesses(hits+misses)
system.cpu.dcache.WriteReq_accesses::cpu.data     70038712                       # number of WriteReq accesses(hits+misses)
system.cpu.dcache.WriteReq_accesses::total     70038712                       # number of WriteReq accesses(hits+misses)
system.cpu.dcache.SoftPFReq_accesses::cpu.data        16384                       # number of SoftPFReq accesses(hits+misses)
system.cpu.dcache.SoftPFReq_accesses::total        16384                       # number of SoftPFReq accesses(hits+misses)
system.cpu.dcache.demand_accesses::cpu.data    295969090                       # number of demand (read+write) accesses
system.cpu.dcache.demand_accesses::total    295969090                       # number of demand (read+write) accesses
system.cpu.dcache.overall_accesses::cpu.data    295985474                       # number of overall (read+write) accesses
system.cpu.dcache.overall_accesses::total    295985474                       # number of overall (read+write) accesses
system.cpu.dcache.ReadReq_miss_rate::cpu.data     0.007519                       # miss rate for ReadReq accesses
system.cpu.dcache.ReadReq_miss_rate::total     0.007519                       # miss rate for ReadReq accesses
system.cpu.dcache.WriteReq_miss_rate::cpu.data     0.010159                       # miss rate for WriteReq accesses
system.cpu.dcache.WriteReq_miss_rate::total     0.010159                       # miss rate for WriteReq accesses
system.cpu.dcache.SoftPFReq_miss_rate::cpu.data            1                       # miss rate for SoftPFReq accesses
system.cpu.dcache.SoftPFReq_miss_rate::total            1                       # miss rate for SoftPFReq accesses
system.cpu.dcache.demand_miss_rate::cpu.data     0.008144                       # miss rate for demand accesses
system.cpu.dcache.demand_miss_rate::total     0.008144                       # miss rate for demand accesses
system.cpu.dcache.overall_miss_rate::cpu.data     0.008199                       # miss rate for overall accesses
system.cpu.dcache.overall_miss_rate::total     0.008199                       # miss rate for overall accesses
system.cpu.dcache.ReadReq_avg_miss_latency::cpu.data 38598.382345                       # average ReadReq miss latency
system.cpu.dcache.ReadReq_avg_miss_latency::total 38598.382345                       # average ReadReq miss latency
system.cpu.dcache.WriteReq_avg_miss_latency::cpu.data 68679.726148                       # average WriteReq miss latency
system.cpu.dcache.WriteReq_avg_miss_latency::total 68679.726148                       # average WriteReq miss latency
system.cpu.dcache.demand_avg_miss_latency::cpu.data 47478.761627                       # average overall miss latency
system.cpu.dcache.demand_avg_miss_latency::total 47478.761627                       # average overall miss latency
system.cpu.dcache.overall_avg_miss_latency::cpu.data 47158.204938                       # average overall miss latency
system.cpu.dcache.overall_avg_miss_latency::total 47158.204938                       # average overall miss latency
system.cpu.dcache.blocked_cycles::no_mshrs         3005                       # number of cycles access was blocked
system.cpu.dcache.blocked_cycles::no_targets            0                       # number of cycles access was blocked
system.cpu.dcache.blocked::no_mshrs                15                       # number of cycles access was blocked
system.cpu.dcache.blocked::no_targets               0                       # number of cycles access was blocked
system.cpu.dcache.avg_blocked_cycles::no_mshrs   200.333333                       # average number of cycles each access was blocked
system.cpu.dcache.avg_blocked_cycles::no_targets          nan                       # average number of cycles each access was blocked
system.cpu.dcache.writebacks::writebacks      1117643                       # number of writebacks
system.cpu.dcache.writebacks::total           1117643                       # number of writebacks
system.cpu.dcache.ReadReq_mshr_misses::cpu.data      1698755                       # number of ReadReq MSHR misses
system.cpu.dcache.ReadReq_mshr_misses::total      1698755                       # number of ReadReq MSHR misses
system.cpu.dcache.WriteReq_mshr_misses::cpu.data       711552                       # number of WriteReq MSHR misses
system.cpu.dcache.WriteReq_mshr_misses::total       711552                       # number of WriteReq MSHR misses
system.cpu.dcache.SoftPFReq_mshr_misses::cpu.data        16384                       # number of SoftPFReq MSHR misses
system.cpu.dcache.SoftPFReq_mshr_misses::total        16384                       # number of SoftPFReq MSHR misses
system.cpu.dcache.demand_mshr_misses::cpu.data      2410307                       # number of demand (read+write) MSHR misses
system.cpu.dcache.demand_mshr_misses::total      2410307                       # number of demand (read+write) MSHR misses
system.cpu.dcache.overall_mshr_misses::cpu.data      2426691                       # number of overall MSHR misses
system.cpu.dcache.overall_mshr_misses::total      2426691                       # number of overall MSHR misses
system.cpu.dcache.ReadReq_mshr_miss_latency::cpu.data  63870440000                       # number of ReadReq MSHR miss cycles
system.cpu.dcache.ReadReq_mshr_miss_latency::total  63870440000                       # number of ReadReq MSHR miss cycles
system.cpu.dcache.WriteReq_mshr_miss_latency::cpu.data  48157644500                       # number of WriteReq MSHR miss cycles
system.cpu.dcache.WriteReq_mshr_miss_latency::total  48157644500                       # number of WriteReq MSHR miss cycles
system.cpu.dcache.SoftPFReq_mshr_miss_latency::cpu.data   1370968000                       # number of SoftPFReq MSHR miss cycles
system.cpu.dcache.SoftPFReq_mshr_miss_latency::total   1370968000                       # number of SoftPFReq MSHR miss cycles
system.cpu.dcache.demand_mshr_miss_latency::cpu.data 112028084500                       # number of demand (read+write) MSHR miss cycles
system.cpu.dcache.demand_mshr_miss_latency::total 112028084500                       # number of demand (read+write) MSHR miss cycles
system.cpu.dcache.overall_mshr_miss_latency::cpu.data 113399052500                       # number of overall MSHR miss cycles
system.cpu.dcache.overall_mshr_miss_latency::total 113399052500                       # number of overall MSHR miss cycles
system.cpu.dcache.ReadReq_mshr_miss_rate::cpu.data     0.007519                       # mshr miss rate for ReadReq accesses
system.cpu.dcache.ReadReq_mshr_miss_rate::total     0.007519                       # mshr miss rate for ReadReq accesses
system.cpu.dcache.WriteReq_mshr_miss_rate::cpu.data     0.010159                       # mshr miss rate for WriteReq accesses
system.cpu.dcache.WriteReq_mshr_miss_rate::total     0.010159                       # mshr miss rate for WriteReq accesses
system.cpu.dcache.SoftPFReq_mshr_miss_rate::cpu.data            1                       # mshr miss rate for SoftPFReq accesses
system.cpu.dcache.SoftPFReq_mshr_miss_rate::total            1                       # mshr miss rate for SoftPFReq accesses
system.cpu.dcache.demand_mshr_miss_rate::cpu.data     0.008144                       # mshr miss rate for demand accesses
system.cpu.dcache.demand_mshr_miss_rate::total     0.008144                       # mshr miss rate for demand accesses
system.cpu.dcache.overall_mshr_miss_rate::cpu.data     0.008199                       # mshr miss rate for overall accesses
system.cpu.dcache.overall_mshr_miss_rate::total     0.008199                       # mshr miss rate for overall accesses
system.cpu.dcache.ReadReq_avg_mshr_miss_latency::cpu.data 37598.382345                       # average ReadReq mshr miss latency
system.cpu.dcache.ReadReq_avg_mshr_miss_latency::total 37598.382345                       # average ReadReq mshr miss latency
system.cpu.dcache.WriteReq_avg_mshr_miss_latency::cpu.data 67679.726148                       # average WriteReq mshr miss latency
system.cpu.dcache.WriteReq_avg_mshr_miss_latency::total 67679.726148                       # average WriteReq mshr miss latency
system.cpu.dcache.SoftPFReq_avg_mshr_miss_latency::cpu.data 83677.246094                       # average SoftPFReq mshr miss latency
system.cpu.dcache.SoftPFReq_avg_mshr_miss_latency::total 83677.246094                       # average SoftPFReq mshr miss latency
system.cpu.dcache.demand_avg_mshr_miss_latency::cpu.data 46478.761627                       # average overall mshr miss latency
system.cpu.dcache.demand_avg_mshr_miss_latency::total 46478.761627                       # average overall mshr miss latency
system.cpu.dcache.overall_avg_mshr_miss_latency::cpu.data 46729.910195                       # average overall mshr miss latency
system.cpu.dcache.overall_avg_mshr_miss_latency::total 46729.910195                       # average overall mshr miss latency
system.cpu.dtb_walker_cache.tags.pwrStateResidencyTicks::UNDEFINED 1095575512500                       # Cumulative time (in ticks) in various power states
system.cpu.dtb_walker_cache.tags.replacements            0                       # number of replacements
system.cpu.dtb_walker_cache.tags.tagsinuse            0                       # Cycle average of tags in use
system.cpu.dtb_walker_cache.tags.total_refs            0                       # Total number of references to valid blocks.
system.cpu.dtb_walker_cache.tags.sampled_refs            0                       # Sample count of references to valid blocks.
system.cpu.dtb_walker_cache.tags.avg_refs          nan                       # Average number of references to valid blocks.
system.cpu.dtb_walker_cache.tags.warmup_cycle            0                       # Cycle when the warmup percentage was hit.
system.cpu.dtb_walker_cache.tags.tag_accesses            0                       # Number of tag accesses
system.cpu.dtb_walker_cache.tags.data_accesses            0                       # Number of data accesses
system.cpu.dtb_walker_cache.pwrStateResidencyTicks::UNDEFINED 1095575512500                       # Cumulative time (in ticks) in various power states
system.cpu.dtb_walker_cache.blocked_cycles::no_mshrs            0                       # number of cycles access was blocked
system.cpu.dtb_walker_cache.blocked_cycles::no_targets            0                       # number of cycles access was blocked
system.cpu.dtb_walker_cache.blocked::no_mshrs            0                       # number of cycles access was blocked
system.cpu.dtb_walker_cache.blocked::no_targets            0                       # number of cycles access was blocked
system.cpu.dtb_walker_cache.avg_blocked_cycles::no_mshrs          nan                       # average number of cycles each access was blocked
system.cpu.dtb_walker_cache.avg_blocked_cycles::no_targets          nan                       # average number of cycles each access was blocked
system.cpu.icache.tags.pwrStateResidencyTicks::UNDEFINED 1095575512500                       # Cumulative time (in ticks) in various power states
system.cpu.icache.tags.replacements               329                       # number of replacements
system.cpu.icache.tags.tagsinuse          1091.665297                       # Cycle average of tags in use
system.cpu.icache.tags.total_refs           687396039                       # Total number of references to valid blocks.
system.cpu.icache.tags.sampled_refs              1823                       # Sample count of references to valid blocks.
system.cpu.icache.tags.avg_refs          377068.589687                       # Average number of references to valid blocks.
system.cpu.icache.tags.warmup_cycle                 0                       # Cycle when the warmup percentage was hit.
system.cpu.icache.tags.occ_blocks::cpu.inst  1091.665297                       # Average occupied blocks per requestor
system.cpu.icache.tags.occ_percent::cpu.inst     0.533040                       # Average percentage of cache occupancy
system.cpu.icache.tags.occ_percent::total     0.533040                       # Average percentage of cache occupancy
system.cpu.icache.tags.occ_task_id_blocks::1024         1494                       # Occupied blocks per task id
system.cpu.icache.tags.age_task_id_blocks_1024::1           14                       # Occupied blocks per task id
system.cpu.icache.tags.age_task_id_blocks_1024::3           50                       # Occupied blocks per task id
system.cpu.icache.tags.age_task_id_blocks_1024::4         1430                       # Occupied blocks per task id
system.cpu.icache.tags.occ_task_id_percent::1024     0.729492                       # Percentage of cache occupancy per task id
system.cpu.icache.tags.tag_accesses        1374797547                       # Number of tag accesses
system.cpu.icache.tags.data_accesses       1374797547                       # Number of data accesses
system.cpu.icache.pwrStateResidencyTicks::UNDEFINED 1095575512500                       # Cumulative time (in ticks) in various power states
system.cpu.icache.ReadReq_hits::cpu.inst    687396039                       # number of ReadReq hits
system.cpu.icache.ReadReq_hits::total       687396039                       # number of ReadReq hits
system.cpu.icache.demand_hits::cpu.inst     687396039                       # number of demand (read+write) hits
system.cpu.icache.demand_hits::total        687396039                       # number of demand (read+write) hits
system.cpu.icache.overall_hits::cpu.inst    687396039                       # number of overall hits
system.cpu.icache.overall_hits::total       687396039                       # number of overall hits
system.cpu.icache.ReadReq_misses::cpu.inst         1823                       # number of ReadReq misses
system.cpu.icache.ReadReq_misses::total          1823                       # number of ReadReq misses
system.cpu.icache.demand_misses::cpu.inst         1823                       # number of demand (read+write) misses
system.cpu.icache.demand_misses::total           1823                       # number of demand (read+write) misses
system.cpu.icache.overall_misses::cpu.inst         1823                       # number of overall misses
system.cpu.icache.overall_misses::total          1823                       # number of overall misses
system.cpu.icache.ReadReq_miss_latency::cpu.inst    164473500                       # number of ReadReq miss cycles
system.cpu.icache.ReadReq_miss_latency::total    164473500                       # number of ReadReq miss cycles
system.cpu.icache.demand_miss_latency::cpu.inst    164473500                       # number of demand (read+write) miss cycles
system.cpu.icache.demand_miss_latency::total    164473500                       # number of demand (read+write) miss cycles
system.cpu.icache.overall_miss_latency::cpu.inst    164473500                       # number of overall miss cycles
system.cpu.icache.overall_miss_latency::total    164473500                       # number of overall miss cycles
system.cpu.icache.ReadReq_accesses::cpu.inst    687397862                       # number of ReadReq accesses(hits+misses)
system.cpu.icache.ReadReq_accesses::total    687397862                       # number of ReadReq accesses(hits+misses)
system.cpu.icache.demand_accesses::cpu.inst    687397862                       # number of demand (read+write) accesses
system.cpu.icache.demand_accesses::total    687397862                       # number of demand (read+write) accesses
system.cpu.icache.overall_accesses::cpu.inst    687397862                       # number of overall (read+write) accesses
system.cpu.icache.overall_accesses::total    687397862                       # number of overall (read+write) accesses
system.cpu.icache.ReadReq_miss_rate::cpu.inst     0.000003                       # miss rate for ReadReq accesses
system.cpu.icache.ReadReq_miss_rate::total     0.000003                       # miss rate for ReadReq accesses
system.cpu.icache.demand_miss_rate::cpu.inst     0.000003                       # miss rate for demand accesses
system.cpu.icache.demand_miss_rate::total     0.000003                       # miss rate for demand accesses
system.cpu.icache.overall_miss_rate::cpu.inst     0.000003                       # miss rate for overall accesses
system.cpu.icache.overall_miss_rate::total     0.000003                       # miss rate for overall accesses
system.cpu.icache.ReadReq_avg_miss_latency::cpu.inst 90221.338453                       # average ReadReq miss latency
system.cpu.icache.ReadReq_avg_miss_latency::total 90221.338453                       # average ReadReq miss latency
system.cpu.icache.demand_avg_miss_latency::cpu.inst 90221.338453                       # average overall miss latency
system.cpu.icache.demand_avg_miss_latency::total 90221.338453                       # average overall miss latency
system.cpu.icache.overall_avg_miss_latency::cpu.inst 90221.338453                       # average overall miss latency
system.cpu.icache.overall_avg_miss_latency::total 90221.338453                       # average overall miss latency
system.cpu.icache.blocked_cycles::no_mshrs            0                       # number of cycles access was blocked
system.cpu.icache.blocked_cycles::no_targets            0                       # number of cycles access was blocked
system.cpu.icache.blocked::no_mshrs                 0                       # number of cycles access was blocked
system.cpu.icache.blocked::no_targets               0                       # number of cycles access was blocked
system.cpu.icache.avg_blocked_cycles::no_mshrs          nan                       # average number of cycles each access was blocked
system.cpu.icache.avg_blocked_cycles::no_targets          nan                       # average number of cycles each access was blocked
system.cpu.icache.writebacks::writebacks          329                       # number of writebacks
system.cpu.icache.writebacks::total               329                       # number of writebacks
system.cpu.icache.ReadReq_mshr_misses::cpu.inst         1823                       # number of ReadReq MSHR misses
system.cpu.icache.ReadReq_mshr_misses::total         1823                       # number of ReadReq MSHR misses
system.cpu.icache.demand_mshr_misses::cpu.inst         1823                       # number of demand (read+write) MSHR misses
system.cpu.icache.demand_mshr_misses::total         1823                       # number of demand (read+write) MSHR misses
system.cpu.icache.overall_mshr_misses::cpu.inst         1823                       # number of overall MSHR misses
system.cpu.icache.overall_mshr_misses::total         1823                       # number of overall MSHR misses
system.cpu.icache.ReadReq_mshr_miss_latency::cpu.inst    162650500                       # number of ReadReq MSHR miss cycles
system.cpu.icache.ReadReq_mshr_miss_latency::total    162650500                       # number of ReadReq MSHR miss cycles
system.cpu.icache.demand_mshr_miss_latency::cpu.inst    162650500                       # number of demand (read+write) MSHR miss cycles
system.cpu.icache.demand_mshr_miss_latency::total    162650500                       # number of demand (read+write) MSHR miss cycles
system.cpu.icache.overall_mshr_miss_latency::cpu.inst    162650500                       # number of overall MSHR miss cycles
system.cpu.icache.overall_mshr_miss_latency::total    162650500                       # number of overall MSHR miss cycles
system.cpu.icache.ReadReq_mshr_miss_rate::cpu.inst     0.000003                       # mshr miss rate for ReadReq accesses
system.cpu.icache.ReadReq_mshr_miss_rate::total     0.000003                       # mshr miss rate for ReadReq accesses
system.cpu.icache.demand_mshr_miss_rate::cpu.inst     0.000003                       # mshr miss rate for demand accesses
system.cpu.icache.demand_mshr_miss_rate::total     0.000003                       # mshr miss rate for demand accesses
system.cpu.icache.overall_mshr_miss_rate::cpu.inst     0.000003                       # mshr miss rate for overall accesses
system.cpu.icache.overall_mshr_miss_rate::total     0.000003                       # mshr miss rate for overall accesses
system.cpu.icache.ReadReq_avg_mshr_miss_latency::cpu.inst 89221.338453                       # average ReadReq mshr miss latency
system.cpu.icache.ReadReq_avg_mshr_miss_latency::total 89221.338453                       # average ReadReq mshr miss latency
system.cpu.icache.demand_avg_mshr_miss_latency::cpu.inst 89221.338453                       # average overall mshr miss latency
system.cpu.icache.demand_avg_mshr_miss_latency::total 89221.338453                       # average overall mshr miss latency
system.cpu.icache.overall_avg_mshr_miss_latency::cpu.inst 89221.338453                       # average overall mshr miss latency
system.cpu.icache.overall_avg_mshr_miss_latency::total 89221.338453                       # average overall mshr miss latency
system.cpu.itb_walker_cache.tags.pwrStateResidencyTicks::UNDEFINED 1095575512500                       # Cumulative time (in ticks) in various power states
system.cpu.itb_walker_cache.tags.replacements            0                       # number of replacements
system.cpu.itb_walker_cache.tags.tagsinuse            0                       # Cycle average of tags in use
system.cpu.itb_walker_cache.tags.total_refs            0                       # Total number of references to valid blocks.
system.cpu.itb_walker_cache.tags.sampled_refs            0                       # Sample count of references to valid blocks.
system.cpu.itb_walker_cache.tags.avg_refs          nan                       # Average number of references to valid blocks.
system.cpu.itb_walker_cache.tags.warmup_cycle            0                       # Cycle when the warmup percentage was hit.
system.cpu.itb_walker_cache.tags.tag_accesses            0                       # Number of tag accesses
system.cpu.itb_walker_cache.tags.data_accesses            0                       # Number of data accesses
system.cpu.itb_walker_cache.pwrStateResidencyTicks::UNDEFINED 1095575512500                       # Cumulative time (in ticks) in various power states
system.cpu.itb_walker_cache.blocked_cycles::no_mshrs            0                       # number of cycles access was blocked
system.cpu.itb_walker_cache.blocked_cycles::no_targets            0                       # number of cycles access was blocked
system.cpu.itb_walker_cache.blocked::no_mshrs            0                       # number of cycles access was blocked
system.cpu.itb_walker_cache.blocked::no_targets            0                       # number of cycles access was blocked
system.cpu.itb_walker_cache.avg_blocked_cycles::no_mshrs          nan                       # average number of cycles each access was blocked
system.cpu.itb_walker_cache.avg_blocked_cycles::no_targets          nan                       # average number of cycles each access was blocked
system.l2.tags.pwrStateResidencyTicks::UNDEFINED 1095575512500                       # Cumulative time (in ticks) in various power states
system.l2.tags.replacements                    955202                       # number of replacements
system.l2.tags.tagsinuse                 32637.700694                       # Cycle average of tags in use
system.l2.tags.total_refs                     3862790                       # Total number of references to valid blocks.
system.l2.tags.sampled_refs                    987970                       # Sample count of references to valid blocks.
system.l2.tags.avg_refs                      3.909825                       # Average number of references to valid blocks.
system.l2.tags.warmup_cycle                5516293000                       # Cycle when the warmup percentage was hit.
system.l2.tags.occ_blocks::writebacks       67.601859                       # Average occupied blocks per requestor
system.l2.tags.occ_blocks::cpu.inst         69.813029                       # Average occupied blocks per requestor
system.l2.tags.occ_blocks::cpu.data      32500.285806                       # Average occupied blocks per requestor
system.l2.tags.occ_percent::writebacks       0.002063                       # Average percentage of cache occupancy
system.l2.tags.occ_percent::cpu.inst         0.002131                       # Average percentage of cache occupancy
system.l2.tags.occ_percent::cpu.data         0.991830                       # Average percentage of cache occupancy
system.l2.tags.occ_percent::total            0.996024                       # Average percentage of cache occupancy
system.l2.tags.occ_task_id_blocks::1024         32768                       # Occupied blocks per task id
system.l2.tags.age_task_id_blocks_1024::0            1                       # Occupied blocks per task id
system.l2.tags.age_task_id_blocks_1024::1           24                       # Occupied blocks per task id
system.l2.tags.age_task_id_blocks_1024::2           32                       # Occupied blocks per task id
system.l2.tags.age_task_id_blocks_1024::3          492                       # Occupied blocks per task id
system.l2.tags.age_task_id_blocks_1024::4        32219                       # Occupied blocks per task id
system.l2.tags.occ_task_id_percent::1024            1                       # Percentage of cache occupancy per task id
system.l2.tags.tag_accesses                  20393718                       # Number of tag accesses
system.l2.tags.data_accesses                 20393718                       # Number of data accesses
system.l2.pwrStateResidencyTicks::UNDEFINED 1095575512500                       # Cumulative time (in ticks) in various power states
system.l2.WritebackDirty_hits::writebacks      1117643                       # number of WritebackDirty hits
system.l2.WritebackDirty_hits::total          1117643                       # number of WritebackDirty hits
system.l2.WritebackClean_hits::writebacks          329                       # number of WritebackClean hits
system.l2.WritebackClean_hits::total              329                       # number of WritebackClean hits
system.l2.ReadExReq_hits::cpu.data             237338                       # number of ReadExReq hits
system.l2.ReadExReq_hits::total                237338                       # number of ReadExReq hits
system.l2.ReadCleanReq_hits::cpu.inst              10                       # number of ReadCleanReq hits
system.l2.ReadCleanReq_hits::total                 10                       # number of ReadCleanReq hits
system.l2.ReadSharedReq_hits::cpu.data        1204594                       # number of ReadSharedReq hits
system.l2.ReadSharedReq_hits::total           1204594                       # number of ReadSharedReq hits
system.l2.demand_hits::cpu.inst                    10                       # number of demand (read+write) hits
system.l2.demand_hits::cpu.data               1441932                       # number of demand (read+write) hits
system.l2.demand_hits::total                  1441942                       # number of demand (read+write) hits
system.l2.overall_hits::cpu.inst                   10                       # number of overall hits
system.l2.overall_hits::cpu.data              1441932                       # number of overall hits
system.l2.overall_hits::total                 1441942                       # number of overall hits
system.l2.ReadExReq_misses::cpu.data           474214                       # number of ReadExReq misses
system.l2.ReadExReq_misses::total              474214                       # number of ReadExReq misses
system.l2.ReadCleanReq_misses::cpu.inst          1813                       # number of ReadCleanReq misses
system.l2.ReadCleanReq_misses::total             1813                       # number of ReadCleanReq misses
system.l2.ReadSharedReq_misses::cpu.data       510545                       # number of ReadSharedReq misses
system.l2.ReadSharedReq_misses::total          510545                       # number of ReadSharedReq misses
system.l2.demand_misses::cpu.inst                1813                       # number of demand (read+write) misses
system.l2.demand_misses::cpu.data              984759                       # number of demand (read+write) misses
system.l2.demand_misses::total                 986572                       # number of demand (read+write) misses
system.l2.overall_misses::cpu.inst               1813                       # number of overall misses
system.l2.overall_misses::cpu.data             984759                       # number of overall misses
system.l2.overall_misses::total                986572                       # number of overall misses
system.l2.ReadExReq_miss_latency::cpu.data  44598267500                       # number of ReadExReq miss cycles
system.l2.ReadExReq_miss_latency::total   44598267500                       # number of ReadExReq miss cycles
system.l2.ReadCleanReq_miss_latency::cpu.inst    159810000                       # number of ReadCleanReq miss cycles
system.l2.ReadCleanReq_miss_latency::total    159810000                       # number of ReadCleanReq miss cycles
system.l2.ReadSharedReq_miss_latency::cpu.data  50020462500                       # number of ReadSharedReq miss cycles
system.l2.ReadSharedReq_miss_latency::total  50020462500                       # number of ReadSharedReq miss cycles
system.l2.demand_miss_latency::cpu.inst     159810000                       # number of demand (read+write) miss cycles
system.l2.demand_miss_latency::cpu.data   94618730000                       # number of demand (read+write) miss cycles
system.l2.demand_miss_latency::total      94778540000                       # number of demand (read+write) miss cycles
system.l2.overall_miss_latency::cpu.inst    159810000                       # number of overall miss cycles
system.l2.overall_miss_latency::cpu.data  94618730000                       # number of overall miss cycles
system.l2.overall_miss_latency::total     94778540000                       # number of overall miss cycles
system.l2.WritebackDirty_accesses::writebacks      1117643                       # number of WritebackDirty accesses(hits+misses)
system.l2.WritebackDirty_accesses::total      1117643                       # number of WritebackDirty accesses(hits+misses)
system.l2.WritebackClean_accesses::writebacks          329                       # number of WritebackClean accesses(hits+misses)
system.l2.WritebackClean_accesses::total          329                       # number of WritebackClean accesses(hits+misses)
system.l2.ReadExReq_accesses::cpu.data         711552                       # number of ReadExReq accesses(hits+misses)
system.l2.ReadExReq_accesses::total            711552                       # number of ReadExReq accesses(hits+misses)
system.l2.ReadCleanReq_accesses::cpu.inst         1823                       # number of ReadCleanReq accesses(hits+misses)
system.l2.ReadCleanReq_accesses::total           1823                       # number of ReadCleanReq accesses(hits+misses)
system.l2.ReadSharedReq_accesses::cpu.data      1715139                       # number of ReadSharedReq accesses(hits+misses)
system.l2.ReadSharedReq_accesses::total       1715139                       # number of ReadSharedReq accesses(hits+misses)
system.l2.demand_accesses::cpu.inst              1823                       # number of demand (read+write) accesses
system.l2.demand_accesses::cpu.data           2426691                       # number of demand (read+write) accesses
system.l2.demand_accesses::total              2428514                       # number of demand (read+write) accesses
system.l2.overall_accesses::cpu.inst             1823                       # number of overall (read+write) accesses
system.l2.overall_accesses::cpu.data          2426691                       # number of overall (read+write) accesses
system.l2.overall_accesses::total             2428514                       # number of overall (read+write) accesses
system.l2.ReadExReq_miss_rate::cpu.data      0.666450                       # miss rate for ReadExReq accesses
system.l2.ReadExReq_miss_rate::total         0.666450                       # miss rate for ReadExReq accesses
system.l2.ReadCleanReq_miss_rate::cpu.inst     0.994515                       # miss rate for ReadCleanReq accesses
system.l2.ReadCleanReq_miss_rate::total      0.994515                       # miss rate for ReadCleanReq accesses
system.l2.ReadSharedReq_miss_rate::cpu.data     0.297670                       # miss rate for ReadSharedReq accesses
system.l2.ReadSharedReq_miss_rate::total     0.297670                       # miss rate for ReadSharedReq accesses
system.l2.demand_miss_rate::cpu.inst         0.994515                       # miss rate for demand accesses
system.l2.demand_miss_rate::cpu.data         0.405803                       # miss rate for demand accesses
system.l2.demand_miss_rate::total            0.406245                       # miss rate for demand accesses
system.l2.overall_miss_rate::cpu.inst        0.994515                       # miss rate for overall accesses
system.l2.overall_miss_rate::cpu.data        0.405803                       # miss rate for overall accesses
system.l2.overall_miss_rate::total           0.406245                       # miss rate for overall accesses
system.l2.ReadExReq_avg_miss_latency::cpu.data 94046.712033                       # average ReadExReq miss latency
system.l2.ReadExReq_avg_miss_latency::total 94046.712033                       # average ReadExReq miss latency
system.l2.ReadCleanReq_avg_miss_latency::cpu.inst 88146.718147                       # average ReadCleanReq miss latency
system.l2.ReadCleanReq_avg_miss_latency::total 88146.718147                       # average ReadCleanReq miss latency
system.l2.ReadSharedReq_avg_miss_latency::cpu.data 97974.639846                       # average ReadSharedReq miss latency
system.l2.ReadSharedReq_avg_miss_latency::total 97974.639846                       # average ReadSharedReq miss latency
system.l2.demand_avg_miss_latency::cpu.inst 88146.718147                       # average overall miss latency
system.l2.demand_avg_miss_latency::cpu.data 96083.133031                       # average overall miss latency
system.l2.demand_avg_miss_latency::total 96068.548469                       # average overall miss latency
system.l2.overall_avg_miss_latency::cpu.inst 88146.718147                       # average overall miss latency
system.l2.overall_avg_miss_latency::cpu.data 96083.133031                       # average overall miss latency
system.l2.overall_avg_miss_latency::total 96068.548469                       # average overall miss latency
system.l2.blocked_cycles::no_mshrs                  0                       # number of cycles access was blocked
system.l2.blocked_cycles::no_targets                0                       # number of cycles access was blocked
system.l2.blocked::no_mshrs                         0                       # number of cycles access was blocked
system.l2.blocked::no_targets                       0                       # number of cycles access was blocked
system.l2.avg_blocked_cycles::no_mshrs            nan                       # average number of cycles each access was blocked
system.l2.avg_blocked_cycles::no_targets          nan                       # average number of cycles each access was blocked
system.l2.writebacks::writebacks               559657                       # number of writebacks
system.l2.writebacks::total                    559657                       # number of writebacks
system.l2.CleanEvict_mshr_misses::writebacks          677                       # number of CleanEvict MSHR misses
system.l2.CleanEvict_mshr_misses::total           677                       # number of CleanEvict MSHR misses
system.l2.ReadExReq_mshr_misses::cpu.data       474214                       # number of ReadExReq MSHR misses
system.l2.ReadExReq_mshr_misses::total         474214                       # number of ReadExReq MSHR misses
system.l2.ReadCleanReq_mshr_misses::cpu.inst         1813                       # number of ReadCleanReq MSHR misses
system.l2.ReadCleanReq_mshr_misses::total         1813                       # number of ReadCleanReq MSHR misses
system.l2.ReadSharedReq_mshr_misses::cpu.data       510545                       # number of ReadSharedReq MSHR misses
system.l2.ReadSharedReq_mshr_misses::total       510545                       # number of ReadSharedReq MSHR misses
system.l2.demand_mshr_misses::cpu.inst           1813                       # number of demand (read+write) MSHR misses
system.l2.demand_mshr_misses::cpu.data         984759                       # number of demand (read+write) MSHR misses
system.l2.demand_mshr_misses::total            986572                       # number of demand (read+write) MSHR misses
system.l2.overall_mshr_misses::cpu.inst          1813                       # number of overall MSHR misses
system.l2.overall_mshr_misses::cpu.data        984759                       # number of overall MSHR misses
system.l2.overall_mshr_misses::total           986572                       # number of overall MSHR misses
system.l2.ReadExReq_mshr_miss_latency::cpu.data  39856127500                       # number of ReadExReq MSHR miss cycles
system.l2.ReadExReq_mshr_miss_latency::total  39856127500                       # number of ReadExReq MSHR miss cycles
system.l2.ReadCleanReq_mshr_miss_latency::cpu.inst    141680000                       # number of ReadCleanReq MSHR miss cycles
system.l2.ReadCleanReq_mshr_miss_latency::total    141680000                       # number of ReadCleanReq MSHR miss cycles
system.l2.ReadSharedReq_mshr_miss_latency::cpu.data  44915012500                       # number of ReadSharedReq MSHR miss cycles
system.l2.ReadSharedReq_mshr_miss_latency::total  44915012500                       # number of ReadSharedReq MSHR miss cycles
system.l2.demand_mshr_miss_latency::cpu.inst    141680000                       # number of demand (read+write) MSHR miss cycles
system.l2.demand_mshr_miss_latency::cpu.data  84771140000                       # number of demand (read+write) MSHR miss cycles
system.l2.demand_mshr_miss_latency::total  84912820000                       # number of demand (read+write) MSHR miss cycles
system.l2.overall_mshr_miss_latency::cpu.inst    141680000                       # number of overall MSHR miss cycles
system.l2.overall_mshr_miss_latency::cpu.data  84771140000                       # number of overall MSHR miss cycles
system.l2.overall_mshr_miss_latency::total  84912820000                       # number of overall MSHR miss cycles
system.l2.CleanEvict_mshr_miss_rate::writebacks          inf                       # mshr miss rate for CleanEvict accesses
system.l2.CleanEvict_mshr_miss_rate::total          inf                       # mshr miss rate for CleanEvict accesses
system.l2.ReadExReq_mshr_miss_rate::cpu.data     0.666450                       # mshr miss rate for ReadExReq accesses
system.l2.ReadExReq_mshr_miss_rate::total     0.666450                       # mshr miss rate for ReadExReq accesses
system.l2.ReadCleanReq_mshr_miss_rate::cpu.inst     0.994515                       # mshr miss rate for ReadCleanReq accesses
system.l2.ReadCleanReq_mshr_miss_rate::total     0.994515                       # mshr miss rate for ReadCleanReq accesses
system.l2.ReadSharedReq_mshr_miss_rate::cpu.data     0.297670                       # mshr miss rate for ReadSharedReq accesses
system.l2.ReadSharedReq_mshr_miss_rate::total     0.297670                       # mshr miss rate for ReadSharedReq accesses
system.l2.demand_mshr_miss_rate::cpu.inst     0.994515                       # mshr miss rate for demand accesses
system.l2.demand_mshr_miss_rate::cpu.data     0.405803                       # mshr miss rate for demand accesses
system.l2.demand_mshr_miss_rate::total       0.406245                       # mshr miss rate for demand accesses
system.l2.overall_mshr_miss_rate::cpu.inst     0.994515                       # mshr miss rate for overall accesses
system.l2.overall_mshr_miss_rate::cpu.data     0.405803                       # mshr miss rate for overall accesses
system.l2.overall_mshr_miss_rate::total      0.406245                       # mshr miss rate for overall accesses
system.l2.ReadExReq_avg_mshr_miss_latency::cpu.data 84046.712033                       # average ReadExReq mshr miss latency
system.l2.ReadExReq_avg_mshr_miss_latency::total 84046.712033                       # average ReadExReq mshr miss latency
system.l2.ReadCleanReq_avg_mshr_miss_latency::cpu.inst 78146.718147                       # average ReadCleanReq mshr miss latency
system.l2.ReadCleanReq_avg_mshr_miss_latency::total 78146.718147                       # average ReadCleanReq mshr miss latency
system.l2.ReadSharedReq_avg_mshr_miss_latency::cpu.data 87974.639846                       # average ReadSharedReq mshr miss latency
system.l2.ReadSharedReq_avg_mshr_miss_latency::total 87974.639846                       # average ReadSharedReq mshr miss latency
system.l2.demand_avg_mshr_miss_latency::cpu.inst 78146.718147                       # average overall mshr miss latency
system.l2.demand_avg_mshr_miss_latency::cpu.data 86083.133031                       # average overall mshr miss latency
system.l2.demand_avg_mshr_miss_latency::total 86068.548469                       # average overall mshr miss latency
system.l2.overall_avg_mshr_miss_latency::cpu.inst 78146.718147                       # average overall mshr miss latency
system.l2.overall_avg_mshr_miss_latency::cpu.data 86083.133031                       # average overall mshr miss latency
system.l2.overall_avg_mshr_miss_latency::total 86068.548469                       # average overall mshr miss latency
system.membus.snoop_filter.tot_requests       1939284                       # Total number of requests made to the snoop filter.
system.membus.snoop_filter.hit_single_requests       952712                       # Number of requests hitting in the snoop filter with a single holder of the requested data.
system.membus.snoop_filter.hit_multi_requests            0                       # Number of requests hitting in the snoop filter with multiple (>1) holders of the requested data.
system.membus.snoop_filter.tot_snoops               0                       # Total number of snoops made to the snoop filter.
system.membus.snoop_filter.hit_single_snoops            0                       # Number of snoops hitting in the snoop filter with a single holder of the requested data.
system.membus.snoop_filter.hit_multi_snoops            0                       # Number of snoops hitting in the snoop filter with multiple (>1) holders of the requested data.
system.membus.pwrStateResidencyTicks::UNDEFINED 1095575512500                       # Cumulative time (in ticks) in various power states
system.membus.trans_dist::ReadResp             512358                       # Transaction distribution
system.membus.trans_dist::WritebackDirty       559657                       # Transaction distribution
system.membus.trans_dist::CleanEvict           393055                       # Transaction distribution
system.membus.trans_dist::ReadExReq            474214                       # Transaction distribution
system.membus.trans_dist::ReadExResp           474214                       # Transaction distribution
system.membus.trans_dist::ReadSharedReq        512358                       # Transaction distribution
system.membus.pkt_count_system.l2.mem_side::system.mem_ctrls.port      2925856                       # Packet count per connected master and slave (bytes)
system.membus.pkt_count_system.l2.mem_side::total      2925856                       # Packet count per connected master and slave (bytes)
system.membus.pkt_count::total                2925856                       # Packet count per connected master and slave (bytes)
system.membus.pkt_size_system.l2.mem_side::system.mem_ctrls.port     49479328                       # Cumulative packet size per connected master and slave (bytes)
system.membus.pkt_size_system.l2.mem_side::total     49479328                       # Cumulative packet size per connected master and slave (bytes)
system.membus.pkt_size::total                49479328                       # Cumulative packet size per connected master and slave (bytes)
system.membus.snoops                                0                       # Total snoops (count)
system.membus.snoopTraffic                          0                       # Total snoop traffic (bytes)
system.membus.snoop_fanout::samples            986572                       # Request fanout histogram
system.membus.snoop_fanout::mean                    0                       # Request fanout histogram
system.membus.snoop_fanout::stdev                   0                       # Request fanout histogram
system.membus.snoop_fanout::underflows              0      0.00%      0.00% # Request fanout histogram
system.membus.snoop_fanout::0                  986572    100.00%    100.00% # Request fanout histogram
system.membus.snoop_fanout::1                       0      0.00%    100.00% # Request fanout histogram
system.membus.snoop_fanout::overflows               0      0.00%    100.00% # Request fanout histogram
system.membus.snoop_fanout::min_value               0                       # Request fanout histogram
system.membus.snoop_fanout::max_value               0                       # Request fanout histogram
system.membus.snoop_fanout::total              986572                       # Request fanout histogram
system.membus.reqLayer2.occupancy          3058607000                       # Layer occupancy (ticks)
system.membus.reqLayer2.utilization               0.3                       # Layer utilization (%)
system.membus.respLayer1.occupancy         3351392000                       # Layer occupancy (ticks)
system.membus.respLayer1.utilization              0.3                       # Layer utilization (%)
system.tol2bus.snoop_filter.tot_requests      4851438                       # Total number of requests made to the snoop filter.
system.tol2bus.snoop_filter.hit_single_requests      2422924                       # Number of requests hitting in the snoop filter with a single holder of the requested data.
system.tol2bus.snoop_filter.hit_multi_requests            1                       # Number of requests hitting in the snoop filter with multiple (>1) holders of the requested data.
system.tol2bus.snoop_filter.tot_snoops           3167                       # Total number of snoops made to the snoop filter.
system.tol2bus.snoop_filter.hit_single_snoops         3167                       # Number of snoops hitting in the snoop filter with a single holder of the requested data.
system.tol2bus.snoop_filter.hit_multi_snoops            0                       # Number of snoops hitting in the snoop filter with multiple (>1) holders of the requested data.
system.tol2bus.pwrStateResidencyTicks::UNDEFINED 1095575512500                       # Cumulative time (in ticks) in various power states
system.tol2bus.trans_dist::ReadResp           1716962                       # Transaction distribution
system.tol2bus.trans_dist::WritebackDirty      1677300                       # Transaction distribution
system.tol2bus.trans_dist::WritebackClean          329                       # Transaction distribution
system.tol2bus.trans_dist::CleanEvict         1700497                       # Transaction distribution
system.tol2bus.trans_dist::ReadExReq           711552                       # Transaction distribution
system.tol2bus.trans_dist::ReadExResp          711552                       # Transaction distribution
system.tol2bus.trans_dist::ReadCleanReq          1823                       # Transaction distribution
system.tol2bus.trans_dist::ReadSharedReq      1715139                       # Transaction distribution
system.tol2bus.pkt_count_system.cpu.icache.mem_side::system.l2.cpu_side         3975                       # Packet count per connected master and slave (bytes)
system.tol2bus.pkt_count_system.cpu.dcache.mem_side::system.l2.cpu_side      7275977                       # Packet count per connected master and slave (bytes)
system.tol2bus.pkt_count::total               7279952                       # Packet count per connected master and slave (bytes)
system.tol2bus.pkt_size_system.cpu.icache.mem_side::system.l2.cpu_side        68864                       # Cumulative packet size per connected master and slave (bytes)
system.tol2bus.pkt_size_system.cpu.dcache.mem_side::system.l2.cpu_side    113418688                       # Cumulative packet size per connected master and slave (bytes)
system.tol2bus.pkt_size::total              113487552                       # Cumulative packet size per connected master and slave (bytes)
system.tol2bus.snoops                          955202                       # Total snoops (count)
system.tol2bus.snoopTraffic                  17909024                       # Total snoop traffic (bytes)
system.tol2bus.snoop_fanout::samples          3383716                       # Request fanout histogram
system.tol2bus.snoop_fanout::mean            0.000936                       # Request fanout histogram
system.tol2bus.snoop_fanout::stdev           0.030584                       # Request fanout histogram
system.tol2bus.snoop_fanout::underflows             0      0.00%      0.00% # Request fanout histogram
system.tol2bus.snoop_fanout::0                3380548     99.91%     99.91% # Request fanout histogram
system.tol2bus.snoop_fanout::1                   3168      0.09%    100.00% # Request fanout histogram
system.tol2bus.snoop_fanout::2                      0      0.00%    100.00% # Request fanout histogram
system.tol2bus.snoop_fanout::3                      0      0.00%    100.00% # Request fanout histogram
system.tol2bus.snoop_fanout::4                      0      0.00%    100.00% # Request fanout histogram
system.tol2bus.snoop_fanout::overflows              0      0.00%    100.00% # Request fanout histogram
system.tol2bus.snoop_fanout::min_value              0                       # Request fanout histogram
system.tol2bus.snoop_fanout::max_value              1                       # Request fanout histogram
system.tol2bus.snoop_fanout::total            3383716                       # Request fanout histogram
system.tol2bus.reqLayer0.occupancy         2984705000                       # Layer occupancy (ticks)
system.tol2bus.reqLayer0.utilization              0.3                       # Layer utilization (%)
system.tol2bus.respLayer0.occupancy           1823000                       # Layer occupancy (ticks)
system.tol2bus.respLayer0.utilization             0.0                       # Layer utilization (%)
system.tol2bus.respLayer1.occupancy        2426691000                       # Layer occupancy (ticks)
system.tol2bus.respLayer1.utilization             0.2                       # Layer utilization (%)

---------- End Simulation Statistics   ----------
