
---------- Begin Simulation Statistics ----------
sim_seconds                                  2.068525                       # Number of seconds simulated
sim_ticks                                2068525189500                       # Number of ticks simulated
final_tick                               2068525189500                       # Number of ticks from beginning of simulation (restored from checkpoints and never reset)
sim_freq                                 1000000000000                       # Frequency of simulated ticks
host_inst_rate                                 310547                       # Simulator instruction rate (inst/s)
host_op_rate                                   544272                       # Simulator op (including micro ops) rate (op/s)
host_tick_rate                             1284746775                       # Simulator tick rate (ticks/s)
host_mem_usage                                 600516                       # Number of bytes of host memory used
host_seconds                                  1610.06                       # Real time elapsed on the host
sim_insts                                   500000000                       # Number of instructions simulated
sim_ops                                     876313781                       # Number of ops (including micro ops) simulated
system.voltage_domain.voltage                       1                       # Voltage in Volts
system.clk_domain.clock                          1000                       # Clock period in ticks
system.mem_ctrls.pwrStateResidencyTicks::UNDEFINED 2068525189500                       # Cumulative time (in ticks) in various power states
system.mem_ctrls.bytes_read::cpu.inst           37664                       # Number of bytes read from this memory
system.mem_ctrls.bytes_read::cpu.data       337497472                       # Number of bytes read from this memory
system.mem_ctrls.bytes_read::total          337535136                       # Number of bytes read from this memory
system.mem_ctrls.bytes_inst_read::cpu.inst        37664                       # Number of instructions bytes read from this memory
system.mem_ctrls.bytes_inst_read::total         37664                       # Number of instructions bytes read from this memory
system.mem_ctrls.bytes_written::writebacks     42306464                       # Number of bytes written to this memory
system.mem_ctrls.bytes_written::total        42306464                       # Number of bytes written to this memory
system.mem_ctrls.num_reads::cpu.inst             1177                       # Number of read requests responded to by this memory
system.mem_ctrls.num_reads::cpu.data         10546796                       # Number of read requests responded to by this memory
system.mem_ctrls.num_reads::total            10547973                       # Number of read requests responded to by this memory
system.mem_ctrls.num_writes::writebacks       1322077                       # Number of write requests responded to by this memory
system.mem_ctrls.num_writes::total            1322077                       # Number of write requests responded to by this memory
system.mem_ctrls.bw_read::cpu.inst              18208                       # Total read bandwidth from this memory (bytes/s)
system.mem_ctrls.bw_read::cpu.data          163158502                       # Total read bandwidth from this memory (bytes/s)
system.mem_ctrls.bw_read::total             163176710                       # Total read bandwidth from this memory (bytes/s)
system.mem_ctrls.bw_inst_read::cpu.inst         18208                       # Instruction read bandwidth from this memory (bytes/s)
system.mem_ctrls.bw_inst_read::total            18208                       # Instruction read bandwidth from this memory (bytes/s)
system.mem_ctrls.bw_write::writebacks        20452477                       # Write bandwidth from this memory (bytes/s)
system.mem_ctrls.bw_write::total             20452477                       # Write bandwidth from this memory (bytes/s)
system.mem_ctrls.bw_total::writebacks        20452477                       # Total bandwidth to/from this memory (bytes/s)
system.mem_ctrls.bw_total::cpu.inst             18208                       # Total bandwidth to/from this memory (bytes/s)
system.mem_ctrls.bw_total::cpu.data         163158502                       # Total bandwidth to/from this memory (bytes/s)
system.mem_ctrls.bw_total::total            183629188                       # Total bandwidth to/from this memory (bytes/s)
system.mem_ctrls.readReqs                    10547973                       # Number of read requests accepted
system.mem_ctrls.writeReqs                    1322077                       # Number of write requests accepted
system.mem_ctrls.readBursts                  10547973                       # Number of DRAM read bursts, including those serviced by the write queue
system.mem_ctrls.writeBursts                  1322077                       # Number of DRAM write bursts, including those merged in the write queue
system.mem_ctrls.bytesReadDRAM              673596288                       # Total number of bytes read from DRAM
system.mem_ctrls.bytesReadWrQ                 1473984                       # Total number of bytes read from write queue
system.mem_ctrls.bytesWritten                76638976                       # Total number of bytes written to DRAM
system.mem_ctrls.bytesReadSys               337535136                       # Total read bytes from the system interface side
system.mem_ctrls.bytesWrittenSys             42306464                       # Total written bytes from the system interface side
system.mem_ctrls.servicedByWrQ                  23031                       # Number of DRAM read bursts serviced by the write queue
system.mem_ctrls.mergedWrBursts                124561                       # Number of DRAM write bursts merged with an existing one
system.mem_ctrls.neitherReadNorWriteReqs            0                       # Number of requests that are neither read nor write
system.mem_ctrls.perBankRdBursts::0            672366                       # Per bank write bursts
system.mem_ctrls.perBankRdBursts::1            650742                       # Per bank write bursts
system.mem_ctrls.perBankRdBursts::2            652876                       # Per bank write bursts
system.mem_ctrls.perBankRdBursts::3            690102                       # Per bank write bursts
system.mem_ctrls.perBankRdBursts::4            647992                       # Per bank write bursts
system.mem_ctrls.perBankRdBursts::5            644229                       # Per bank write bursts
system.mem_ctrls.perBankRdBursts::6            666684                       # Per bank write bursts
system.mem_ctrls.perBankRdBursts::7            640898                       # Per bank write bursts
system.mem_ctrls.perBankRdBursts::8            646669                       # Per bank write bursts
system.mem_ctrls.perBankRdBursts::9            645814                       # Per bank write bursts
system.mem_ctrls.perBankRdBursts::10           649207                       # Per bank write bursts
system.mem_ctrls.perBankRdBursts::11           655217                       # Per bank write bursts
system.mem_ctrls.perBankRdBursts::12           666065                       # Per bank write bursts
system.mem_ctrls.perBankRdBursts::13           669780                       # Per bank write bursts
system.mem_ctrls.perBankRdBursts::14           660645                       # Per bank write bursts
system.mem_ctrls.perBankRdBursts::15           665656                       # Per bank write bursts
system.mem_ctrls.perBankWrBursts::0             75760                       # Per bank write bursts
system.mem_ctrls.perBankWrBursts::1             74993                       # Per bank write bursts
system.mem_ctrls.perBankWrBursts::2             74938                       # Per bank write bursts
system.mem_ctrls.perBankWrBursts::3             91149                       # Per bank write bursts
system.mem_ctrls.perBankWrBursts::4             76638                       # Per bank write bursts
system.mem_ctrls.perBankWrBursts::5             70180                       # Per bank write bursts
system.mem_ctrls.perBankWrBursts::6             78745                       # Per bank write bursts
system.mem_ctrls.perBankWrBursts::7             69758                       # Per bank write bursts
system.mem_ctrls.perBankWrBursts::8             70601                       # Per bank write bursts
system.mem_ctrls.perBankWrBursts::9             69516                       # Per bank write bursts
system.mem_ctrls.perBankWrBursts::10            70054                       # Per bank write bursts
system.mem_ctrls.perBankWrBursts::11            73385                       # Per bank write bursts
system.mem_ctrls.perBankWrBursts::12            75507                       # Per bank write bursts
system.mem_ctrls.perBankWrBursts::13            75843                       # Per bank write bursts
system.mem_ctrls.perBankWrBursts::14            75147                       # Per bank write bursts
system.mem_ctrls.perBankWrBursts::15            75270                       # Per bank write bursts
system.mem_ctrls.numRdRetry                         0                       # Number of times read queue was full causing retry
system.mem_ctrls.numWrRetry                         0                       # Number of times write queue was full causing retry
system.mem_ctrls.totGap                  2068524849500                       # Total gap between requests
system.mem_ctrls.readPktSize::0                     0                       # Read request sizes (log2)
system.mem_ctrls.readPktSize::1                     0                       # Read request sizes (log2)
system.mem_ctrls.readPktSize::2                     0                       # Read request sizes (log2)
system.mem_ctrls.readPktSize::3                     0                       # Read request sizes (log2)
system.mem_ctrls.readPktSize::4                     0                       # Read request sizes (log2)
system.mem_ctrls.readPktSize::5              10547973                       # Read request sizes (log2)
system.mem_ctrls.readPktSize::6                     0                       # Read request sizes (log2)
system.mem_ctrls.writePktSize::0                    0                       # Write request sizes (log2)
system.mem_ctrls.writePktSize::1                    0                       # Write request sizes (log2)
system.mem_ctrls.writePktSize::2                    0                       # Write request sizes (log2)
system.mem_ctrls.writePktSize::3                    0                       # Write request sizes (log2)
system.mem_ctrls.writePktSize::4                    0                       # Write request sizes (log2)
system.mem_ctrls.writePktSize::5              1322077                       # Write request sizes (log2)
system.mem_ctrls.writePktSize::6                    0                       # Write request sizes (log2)
system.mem_ctrls.rdQLenPdf::0                10524942                       # What read queue length does an incoming req see
system.mem_ctrls.rdQLenPdf::1                       0                       # What read queue length does an incoming req see
system.mem_ctrls.rdQLenPdf::2                       0                       # What read queue length does an incoming req see
system.mem_ctrls.rdQLenPdf::3                       0                       # What read queue length does an incoming req see
system.mem_ctrls.rdQLenPdf::4                       0                       # What read queue length does an incoming req see
system.mem_ctrls.rdQLenPdf::5                       0                       # What read queue length does an incoming req see
system.mem_ctrls.rdQLenPdf::6                       0                       # What read queue length does an incoming req see
system.mem_ctrls.rdQLenPdf::7                       0                       # What read queue length does an incoming req see
system.mem_ctrls.rdQLenPdf::8                       0                       # What read queue length does an incoming req see
system.mem_ctrls.rdQLenPdf::9                       0                       # What read queue length does an incoming req see
system.mem_ctrls.rdQLenPdf::10                      0                       # What read queue length does an incoming req see
system.mem_ctrls.rdQLenPdf::11                      0                       # What read queue length does an incoming req see
system.mem_ctrls.rdQLenPdf::12                      0                       # What read queue length does an incoming req see
system.mem_ctrls.rdQLenPdf::13                      0                       # What read queue length does an incoming req see
system.mem_ctrls.rdQLenPdf::14                      0                       # What read queue length does an incoming req see
system.mem_ctrls.rdQLenPdf::15                      0                       # What read queue length does an incoming req see
system.mem_ctrls.rdQLenPdf::16                      0                       # What read queue length does an incoming req see
system.mem_ctrls.rdQLenPdf::17                      0                       # What read queue length does an incoming req see
system.mem_ctrls.rdQLenPdf::18                      0                       # What read queue length does an incoming req see
system.mem_ctrls.rdQLenPdf::19                      0                       # What read queue length does an incoming req see
system.mem_ctrls.rdQLenPdf::20                      0                       # What read queue length does an incoming req see
system.mem_ctrls.rdQLenPdf::21                      0                       # What read queue length does an incoming req see
system.mem_ctrls.rdQLenPdf::22                      0                       # What read queue length does an incoming req see
system.mem_ctrls.rdQLenPdf::23                      0                       # What read queue length does an incoming req see
system.mem_ctrls.rdQLenPdf::24                      0                       # What read queue length does an incoming req see
system.mem_ctrls.rdQLenPdf::25                      0                       # What read queue length does an incoming req see
system.mem_ctrls.rdQLenPdf::26                      0                       # What read queue length does an incoming req see
system.mem_ctrls.rdQLenPdf::27                      0                       # What read queue length does an incoming req see
system.mem_ctrls.rdQLenPdf::28                      0                       # What read queue length does an incoming req see
system.mem_ctrls.rdQLenPdf::29                      0                       # What read queue length does an incoming req see
system.mem_ctrls.rdQLenPdf::30                      0                       # What read queue length does an incoming req see
system.mem_ctrls.rdQLenPdf::31                      0                       # What read queue length does an incoming req see
system.mem_ctrls.wrQLenPdf::0                       1                       # What write queue length does an incoming req see
system.mem_ctrls.wrQLenPdf::1                       1                       # What write queue length does an incoming req see
system.mem_ctrls.wrQLenPdf::2                       1                       # What write queue length does an incoming req see
system.mem_ctrls.wrQLenPdf::3                       1                       # What write queue length does an incoming req see
system.mem_ctrls.wrQLenPdf::4                       1                       # What write queue length does an incoming req see
system.mem_ctrls.wrQLenPdf::5                       1                       # What write queue length does an incoming req see
system.mem_ctrls.wrQLenPdf::6                       1                       # What write queue length does an incoming req see
system.mem_ctrls.wrQLenPdf::7                       1                       # What write queue length does an incoming req see
system.mem_ctrls.wrQLenPdf::8                       1                       # What write queue length does an incoming req see
system.mem_ctrls.wrQLenPdf::9                       1                       # What write queue length does an incoming req see
system.mem_ctrls.wrQLenPdf::10                      1                       # What write queue length does an incoming req see
system.mem_ctrls.wrQLenPdf::11                      1                       # What write queue length does an incoming req see
system.mem_ctrls.wrQLenPdf::12                      1                       # What write queue length does an incoming req see
system.mem_ctrls.wrQLenPdf::13                      1                       # What write queue length does an incoming req see
system.mem_ctrls.wrQLenPdf::14                      1                       # What write queue length does an incoming req see
system.mem_ctrls.wrQLenPdf::15                  16745                       # What write queue length does an incoming req see
system.mem_ctrls.wrQLenPdf::16                  17968                       # What write queue length does an incoming req see
system.mem_ctrls.wrQLenPdf::17                  72549                       # What write queue length does an incoming req see
system.mem_ctrls.wrQLenPdf::18                  72672                       # What write queue length does an incoming req see
system.mem_ctrls.wrQLenPdf::19                  72672                       # What write queue length does an incoming req see
system.mem_ctrls.wrQLenPdf::20                  72673                       # What write queue length does an incoming req see
system.mem_ctrls.wrQLenPdf::21                  72672                       # What write queue length does an incoming req see
system.mem_ctrls.wrQLenPdf::22                  72674                       # What write queue length does an incoming req see
system.mem_ctrls.wrQLenPdf::23                  72673                       # What write queue length does an incoming req see
system.mem_ctrls.wrQLenPdf::24                  72673                       # What write queue length does an incoming req see
system.mem_ctrls.wrQLenPdf::25                  72678                       # What write queue length does an incoming req see
system.mem_ctrls.wrQLenPdf::26                  72706                       # What write queue length does an incoming req see
system.mem_ctrls.wrQLenPdf::27                  72686                       # What write queue length does an incoming req see
system.mem_ctrls.wrQLenPdf::28                  72681                       # What write queue length does an incoming req see
system.mem_ctrls.wrQLenPdf::29                  72737                       # What write queue length does an incoming req see
system.mem_ctrls.wrQLenPdf::30                  72690                       # What write queue length does an incoming req see
system.mem_ctrls.wrQLenPdf::31                  72681                       # What write queue length does an incoming req see
system.mem_ctrls.wrQLenPdf::32                  72671                       # What write queue length does an incoming req see
system.mem_ctrls.wrQLenPdf::33                      0                       # What write queue length does an incoming req see
system.mem_ctrls.wrQLenPdf::34                      0                       # What write queue length does an incoming req see
system.mem_ctrls.wrQLenPdf::35                      0                       # What write queue length does an incoming req see
system.mem_ctrls.wrQLenPdf::36                      0                       # What write queue length does an incoming req see
system.mem_ctrls.wrQLenPdf::37                      0                       # What write queue length does an incoming req see
system.mem_ctrls.wrQLenPdf::38                      0                       # What write queue length does an incoming req see
system.mem_ctrls.wrQLenPdf::39                      0                       # What write queue length does an incoming req see
system.mem_ctrls.wrQLenPdf::40                      0                       # What write queue length does an incoming req see
system.mem_ctrls.wrQLenPdf::41                      0                       # What write queue length does an incoming req see
system.mem_ctrls.wrQLenPdf::42                      0                       # What write queue length does an incoming req see
system.mem_ctrls.wrQLenPdf::43                      0                       # What write queue length does an incoming req see
system.mem_ctrls.wrQLenPdf::44                      0                       # What write queue length does an incoming req see
system.mem_ctrls.wrQLenPdf::45                      0                       # What write queue length does an incoming req see
system.mem_ctrls.wrQLenPdf::46                      0                       # What write queue length does an incoming req see
system.mem_ctrls.wrQLenPdf::47                      0                       # What write queue length does an incoming req see
system.mem_ctrls.wrQLenPdf::48                      0                       # What write queue length does an incoming req see
system.mem_ctrls.wrQLenPdf::49                      0                       # What write queue length does an incoming req see
system.mem_ctrls.wrQLenPdf::50                      0                       # What write queue length does an incoming req see
system.mem_ctrls.wrQLenPdf::51                      0                       # What write queue length does an incoming req see
system.mem_ctrls.wrQLenPdf::52                      0                       # What write queue length does an incoming req see
system.mem_ctrls.wrQLenPdf::53                      0                       # What write queue length does an incoming req see
system.mem_ctrls.wrQLenPdf::54                      0                       # What write queue length does an incoming req see
system.mem_ctrls.wrQLenPdf::55                      0                       # What write queue length does an incoming req see
system.mem_ctrls.wrQLenPdf::56                      0                       # What write queue length does an incoming req see
system.mem_ctrls.wrQLenPdf::57                      0                       # What write queue length does an incoming req see
system.mem_ctrls.wrQLenPdf::58                      0                       # What write queue length does an incoming req see
system.mem_ctrls.wrQLenPdf::59                      0                       # What write queue length does an incoming req see
system.mem_ctrls.wrQLenPdf::60                      0                       # What write queue length does an incoming req see
system.mem_ctrls.wrQLenPdf::61                      0                       # What write queue length does an incoming req see
system.mem_ctrls.wrQLenPdf::62                      0                       # What write queue length does an incoming req see
system.mem_ctrls.wrQLenPdf::63                      0                       # What write queue length does an incoming req see
system.mem_ctrls.bytesPerActivate::samples      6070040                       # Bytes accessed per row activation
system.mem_ctrls.bytesPerActivate::mean    123.596428                       # Bytes accessed per row activation
system.mem_ctrls.bytesPerActivate::gmean   105.082881                       # Bytes accessed per row activation
system.mem_ctrls.bytesPerActivate::stdev   120.033555                       # Bytes accessed per row activation
system.mem_ctrls.bytesPerActivate::0-127      2257179     37.19%     37.19% # Bytes accessed per row activation
system.mem_ctrls.bytesPerActivate::128-255      3579984     58.98%     96.16% # Bytes accessed per row activation
system.mem_ctrls.bytesPerActivate::256-383        91993      1.52%     97.68% # Bytes accessed per row activation
system.mem_ctrls.bytesPerActivate::384-511        24537      0.40%     98.08% # Bytes accessed per row activation
system.mem_ctrls.bytesPerActivate::512-639        13326      0.22%     98.30% # Bytes accessed per row activation
system.mem_ctrls.bytesPerActivate::640-767        10656      0.18%     98.48% # Bytes accessed per row activation
system.mem_ctrls.bytesPerActivate::768-895        11643      0.19%     98.67% # Bytes accessed per row activation
system.mem_ctrls.bytesPerActivate::896-1023         9313      0.15%     98.82% # Bytes accessed per row activation
system.mem_ctrls.bytesPerActivate::1024-1151        71409      1.18%    100.00% # Bytes accessed per row activation
system.mem_ctrls.bytesPerActivate::total      6070040                       # Bytes accessed per row activation
system.mem_ctrls.rdPerTurnAround::samples        72671                       # Reads before turning the bus around for writes
system.mem_ctrls.rdPerTurnAround::mean     144.829217                       # Reads before turning the bus around for writes
system.mem_ctrls.rdPerTurnAround::gmean     76.784429                       # Reads before turning the bus around for writes
system.mem_ctrls.rdPerTurnAround::stdev    212.135532                       # Reads before turning the bus around for writes
system.mem_ctrls.rdPerTurnAround::0-255         60629     83.43%     83.43% # Reads before turning the bus around for writes
system.mem_ctrls.rdPerTurnAround::256-511         6277      8.64%     92.07% # Reads before turning the bus around for writes
system.mem_ctrls.rdPerTurnAround::512-767         5119      7.04%     99.11% # Reads before turning the bus around for writes
system.mem_ctrls.rdPerTurnAround::768-1023          265      0.36%     99.48% # Reads before turning the bus around for writes
system.mem_ctrls.rdPerTurnAround::1024-1279          145      0.20%     99.68% # Reads before turning the bus around for writes
system.mem_ctrls.rdPerTurnAround::1280-1535           78      0.11%     99.78% # Reads before turning the bus around for writes
system.mem_ctrls.rdPerTurnAround::1536-1791           67      0.09%     99.87% # Reads before turning the bus around for writes
system.mem_ctrls.rdPerTurnAround::1792-2047           25      0.03%     99.91% # Reads before turning the bus around for writes
system.mem_ctrls.rdPerTurnAround::2048-2303           14      0.02%     99.93% # Reads before turning the bus around for writes
system.mem_ctrls.rdPerTurnAround::2304-2559           15      0.02%     99.95% # Reads before turning the bus around for writes
system.mem_ctrls.rdPerTurnAround::2560-2815            7      0.01%     99.96% # Reads before turning the bus around for writes
system.mem_ctrls.rdPerTurnAround::2816-3071            3      0.00%     99.96% # Reads before turning the bus around for writes
system.mem_ctrls.rdPerTurnAround::3072-3327            7      0.01%     99.97% # Reads before turning the bus around for writes
system.mem_ctrls.rdPerTurnAround::3328-3583            3      0.00%     99.98% # Reads before turning the bus around for writes
system.mem_ctrls.rdPerTurnAround::3584-3839            8      0.01%     99.99% # Reads before turning the bus around for writes
system.mem_ctrls.rdPerTurnAround::3840-4095            2      0.00%     99.99% # Reads before turning the bus around for writes
system.mem_ctrls.rdPerTurnAround::4352-4607            1      0.00%     99.99% # Reads before turning the bus around for writes
system.mem_ctrls.rdPerTurnAround::4608-4863            1      0.00%     99.99% # Reads before turning the bus around for writes
system.mem_ctrls.rdPerTurnAround::4864-5119            2      0.00%    100.00% # Reads before turning the bus around for writes
system.mem_ctrls.rdPerTurnAround::5632-5887            1      0.00%    100.00% # Reads before turning the bus around for writes
system.mem_ctrls.rdPerTurnAround::5888-6143            1      0.00%    100.00% # Reads before turning the bus around for writes
system.mem_ctrls.rdPerTurnAround::6912-7167            1      0.00%    100.00% # Reads before turning the bus around for writes
system.mem_ctrls.rdPerTurnAround::total         72671                       # Reads before turning the bus around for writes
system.mem_ctrls.wrPerTurnAround::samples        72671                       # Writes before turning the bus around for reads
system.mem_ctrls.wrPerTurnAround::mean      16.478155                       # Writes before turning the bus around for reads
system.mem_ctrls.wrPerTurnAround::gmean     16.457394                       # Writes before turning the bus around for reads
system.mem_ctrls.wrPerTurnAround::stdev      0.843964                       # Writes before turning the bus around for reads
system.mem_ctrls.wrPerTurnAround::16            54704     75.28%     75.28% # Writes before turning the bus around for reads
system.mem_ctrls.wrPerTurnAround::17             1219      1.68%     76.95% # Writes before turning the bus around for reads
system.mem_ctrls.wrPerTurnAround::18            16715     23.00%     99.95% # Writes before turning the bus around for reads
system.mem_ctrls.wrPerTurnAround::19               33      0.05%    100.00% # Writes before turning the bus around for reads
system.mem_ctrls.wrPerTurnAround::total         72671                       # Writes before turning the bus around for reads
system.mem_ctrls.totQLat                 243151441000                       # Total ticks spent queuing
system.mem_ctrls.totMemAccLat            440494103500                       # Total ticks spent from burst creation until serviced by the DRAM
system.mem_ctrls.totBusLat                52624710000                       # Total ticks spent in databus transfers
system.mem_ctrls.avgQLat                     23102.40                       # Average queueing delay per DRAM burst
system.mem_ctrls.avgBusLat                    5000.00                       # Average bus latency per DRAM burst
system.mem_ctrls.avgMemAccLat                41852.40                       # Average memory access latency per DRAM burst
system.mem_ctrls.avgRdBW                       325.64                       # Average DRAM read bandwidth in MiByte/s
system.mem_ctrls.avgWrBW                        37.05                       # Average achieved write bandwidth in MiByte/s
system.mem_ctrls.avgRdBWSys                    163.18                       # Average system read bandwidth in MiByte/s
system.mem_ctrls.avgWrBWSys                     20.45                       # Average system write bandwidth in MiByte/s
system.mem_ctrls.peakBW                      12800.00                       # Theoretical peak bandwidth in MiByte/s
system.mem_ctrls.busUtil                         2.83                       # Data bus utilization in percentage
system.mem_ctrls.busUtilRead                     2.54                       # Data bus utilization in percentage for reads
system.mem_ctrls.busUtilWrite                    0.29                       # Data bus utilization in percentage for writes
system.mem_ctrls.avgRdQLen                       1.00                       # Average read queue length when enqueuing
system.mem_ctrls.avgWrQLen                      25.19                       # Average write queue length when enqueuing
system.mem_ctrls.readRowHits                  5142918                       # Number of row buffer hits during reads
system.mem_ctrls.writeRowHits                  509468                       # Number of row buffer hits during writes
system.mem_ctrls.readRowHitRate                 48.86                       # Row buffer hit rate for reads
system.mem_ctrls.writeRowHitRate                42.54                       # Row buffer hit rate for writes
system.mem_ctrls.avgGap                     174264.21                       # Average gap between requests
system.mem_ctrls.pageHitRate                    48.22                       # Row buffer hit rate, read and write combined
system.mem_ctrls_0.actEnergy              21728662200                       # Energy for activate commands per rank (pJ)
system.mem_ctrls_0.preEnergy              11549057850                       # Energy for precharge commands per rank (pJ)
system.mem_ctrls_0.readEnergy             37598447460                       # Energy for read commands per rank (pJ)
system.mem_ctrls_0.writeEnergy             3195480420                       # Energy for write commands per rank (pJ)
system.mem_ctrls_0.refreshEnergy         156574008240.000031                       # Energy for refresh commands per rank (pJ)
system.mem_ctrls_0.actBackEnergy         129918180240                       # Energy for active background per rank (pJ)
system.mem_ctrls_0.preBackEnergy           4810247520                       # Energy for precharge background per rank (pJ)
system.mem_ctrls_0.actPowerDownEnergy    627022994370                       # Energy for active power-down per rank (pJ)
system.mem_ctrls_0.prePowerDownEnergy     80745614400                       # Energy for precharge power-down per rank (pJ)
system.mem_ctrls_0.selfRefreshEnergy      52259743275                       # Energy for self refresh per rank (pJ)
system.mem_ctrls_0.totalEnergy           1125420407925                       # Total energy per rank (pJ)
system.mem_ctrls_0.averagePower            544.068988                       # Core power per rank (mW)
system.mem_ctrls_0.totalIdleTime         1771043201500                       # Total Idle time Per DRAM Rank
system.mem_ctrls_0.memoryStateTime::IDLE   5188840750                       # Time in different power states
system.mem_ctrls_0.memoryStateTime::REF   66319438000                       # Time in different power states
system.mem_ctrls_0.memoryStateTime::SREF 185724783750                       # Time in different power states
system.mem_ctrls_0.memoryStateTime::PRE_PDN 210276447750                       # Time in different power states
system.mem_ctrls_0.memoryStateTime::ACT  225964944000                       # Time in different power states
system.mem_ctrls_0.memoryStateTime::ACT_PDN 1375050735250                       # Time in different power states
system.mem_ctrls_1.actEnergy              21611423400                       # Energy for activate commands per rank (pJ)
system.mem_ctrls_1.preEnergy              11486743950                       # Energy for precharge commands per rank (pJ)
system.mem_ctrls_1.readEnergy             37549638420                       # Energy for read commands per rank (pJ)
system.mem_ctrls_1.writeEnergy             3055386060                       # Energy for write commands per rank (pJ)
system.mem_ctrls_1.refreshEnergy         156795278640.000031                       # Energy for refresh commands per rank (pJ)
system.mem_ctrls_1.actBackEnergy         130067948310                       # Energy for active background per rank (pJ)
system.mem_ctrls_1.preBackEnergy           5118858720                       # Energy for precharge background per rank (pJ)
system.mem_ctrls_1.actPowerDownEnergy    619827963030                       # Energy for active power-down per rank (pJ)
system.mem_ctrls_1.prePowerDownEnergy     81634232640                       # Energy for precharge power-down per rank (pJ)
system.mem_ctrls_1.selfRefreshEnergy      56370975765                       # Energy for self refresh per rank (pJ)
system.mem_ctrls_1.totalEnergy           1123531741665                       # Total energy per rank (pJ)
system.mem_ctrls_1.averagePower            543.155939                       # Core power per rank (mW)
system.mem_ctrls_1.totalIdleTime         1769923023500                       # Total Idle time Per DRAM Rank
system.mem_ctrls_1.memoryStateTime::IDLE   5662016250                       # Time in different power states
system.mem_ctrls_1.memoryStateTime::REF   66424540000                       # Time in different power states
system.mem_ctrls_1.memoryStateTime::SREF 198067506000                       # Time in different power states
system.mem_ctrls_1.memoryStateTime::PRE_PDN 212588512750                       # Time in different power states
system.mem_ctrls_1.memoryStateTime::ACT  226510902750                       # Time in different power states
system.mem_ctrls_1.memoryStateTime::ACT_PDN 1359271711750                       # Time in different power states
system.pwrStateResidencyTicks::UNDEFINED 2068525189500                       # Cumulative time (in ticks) in various power states
system.cpu_voltage_domain.voltage                   1                       # Voltage in Volts
system.cpu_clk_domain.clock                       500                       # Clock period in ticks
system.cpu.dtb.walker.pwrStateResidencyTicks::UNDEFINED 2068525189500                       # Cumulative time (in ticks) in various power states
system.cpu.apic_clk_domain.clock                 8000                       # Clock period in ticks
system.cpu.interrupts.pwrStateResidencyTicks::UNDEFINED 2068525189500                       # Cumulative time (in ticks) in various power states
system.cpu.itb.walker.pwrStateResidencyTicks::UNDEFINED 2068525189500                       # Cumulative time (in ticks) in various power states
system.cpu.workload.num_syscalls                  168                       # Number of system calls
system.cpu.pwrStateResidencyTicks::ON    2068525189500                       # Cumulative time (in ticks) in various power states
system.cpu.numCycles                       4137050379                       # number of cpu cycles simulated
system.cpu.numWorkItemsStarted                      0                       # number of work items this cpu started
system.cpu.numWorkItemsCompleted                    0                       # number of work items this cpu completed
system.cpu.committedInsts                   500000000                       # Number of instructions committed
system.cpu.committedOps                     876313781                       # Number of ops (including micro ops) committed
system.cpu.num_int_alu_accesses             872966677                       # Number of integer alu accesses
system.cpu.num_fp_alu_accesses                2882231                       # Number of float alu accesses
system.cpu.num_func_calls                    11025254                       # number of times a function call or return occured
system.cpu.num_conditional_control_insts     75981009                       # number of instructions that are conditional controls
system.cpu.num_int_insts                    872966677                       # number of integer instructions
system.cpu.num_fp_insts                       2882231                       # number of float instructions
system.cpu.num_int_register_reads          1835046952                       # number of times the integer registers were read
system.cpu.num_int_register_writes          703076416                       # number of times the integer registers were written
system.cpu.num_fp_register_reads              4386063                       # number of times the floating registers were read
system.cpu.num_fp_register_writes             2464405                       # number of times the floating registers were written
system.cpu.num_cc_register_reads            441654669                       # number of times the CC registers were read
system.cpu.num_cc_register_writes           253505512                       # number of times the CC registers were written
system.cpu.num_mem_refs                     293763598                       # number of memory refs
system.cpu.num_load_insts                   221285042                       # Number of load instructions
system.cpu.num_store_insts                   72478556                       # Number of store instructions
system.cpu.num_idle_cycles                          0                       # Number of idle cycles
system.cpu.num_busy_cycles                 4137050379                       # Number of busy cycles
system.cpu.not_idle_fraction                        1                       # Percentage of non-idle cycles
system.cpu.idle_fraction                            0                       # Percentage of idle cycles
system.cpu.Branches                          97901001                       # Number of branches fetched
system.cpu.op_class::No_OpClass                939430      0.11%      0.11% # Class of executed instruction
system.cpu.op_class::IntAlu                 578420252     66.01%     66.11% # Class of executed instruction
system.cpu.op_class::IntMult                   907073      0.10%     66.22% # Class of executed instruction
system.cpu.op_class::IntDiv                        42      0.00%     66.22% # Class of executed instruction
system.cpu.op_class::FloatAdd                 2283386      0.26%     66.48% # Class of executed instruction
system.cpu.op_class::FloatCmp                       0      0.00%     66.48% # Class of executed instruction
system.cpu.op_class::FloatCvt                       0      0.00%     66.48% # Class of executed instruction
system.cpu.op_class::FloatMult                      0      0.00%     66.48% # Class of executed instruction
system.cpu.op_class::FloatDiv                       0      0.00%     66.48% # Class of executed instruction
system.cpu.op_class::FloatSqrt                      0      0.00%     66.48% # Class of executed instruction
system.cpu.op_class::SimdAdd                        0      0.00%     66.48% # Class of executed instruction
system.cpu.op_class::SimdAddAcc                     0      0.00%     66.48% # Class of executed instruction
system.cpu.op_class::SimdAlu                        0      0.00%     66.48% # Class of executed instruction
system.cpu.op_class::SimdCmp                        0      0.00%     66.48% # Class of executed instruction
system.cpu.op_class::SimdCvt                        0      0.00%     66.48% # Class of executed instruction
system.cpu.op_class::SimdMisc                       0      0.00%     66.48% # Class of executed instruction
system.cpu.op_class::SimdMult                       0      0.00%     66.48% # Class of executed instruction
system.cpu.op_class::SimdMultAcc                    0      0.00%     66.48% # Class of executed instruction
system.cpu.op_class::SimdShift                      0      0.00%     66.48% # Class of executed instruction
system.cpu.op_class::SimdShiftAcc                   0      0.00%     66.48% # Class of executed instruction
system.cpu.op_class::SimdSqrt                       0      0.00%     66.48% # Class of executed instruction
system.cpu.op_class::SimdFloatAdd                   0      0.00%     66.48% # Class of executed instruction
system.cpu.op_class::SimdFloatAlu                   0      0.00%     66.48% # Class of executed instruction
system.cpu.op_class::SimdFloatCmp                   0      0.00%     66.48% # Class of executed instruction
system.cpu.op_class::SimdFloatCvt                   0      0.00%     66.48% # Class of executed instruction
system.cpu.op_class::SimdFloatDiv                   0      0.00%     66.48% # Class of executed instruction
system.cpu.op_class::SimdFloatMisc                  0      0.00%     66.48% # Class of executed instruction
system.cpu.op_class::SimdFloatMult                  0      0.00%     66.48% # Class of executed instruction
system.cpu.op_class::SimdFloatMultAcc               0      0.00%     66.48% # Class of executed instruction
system.cpu.op_class::SimdFloatSqrt                  0      0.00%     66.48% # Class of executed instruction
system.cpu.op_class::MemRead                221285042     25.25%     91.73% # Class of executed instruction
system.cpu.op_class::MemWrite                72478556      8.27%    100.00% # Class of executed instruction
system.cpu.op_class::IprAccess                      0      0.00%    100.00% # Class of executed instruction
system.cpu.op_class::InstPrefetch                   0      0.00%    100.00% # Class of executed instruction
system.cpu.op_class::total                  876313781                       # Class of executed instruction
system.cpu.dcache.tags.pwrStateResidencyTicks::UNDEFINED 2068525189500                       # Cumulative time (in ticks) in various power states
system.cpu.dcache.tags.replacements          19136763                       # number of replacements
system.cpu.dcache.tags.tagsinuse          1023.903065                       # Cycle average of tags in use
system.cpu.dcache.tags.total_refs           274674062                       # Total number of references to valid blocks.
system.cpu.dcache.tags.sampled_refs          19137787                       # Sample count of references to valid blocks.
system.cpu.dcache.tags.avg_refs             14.352446                       # Average number of references to valid blocks.
system.cpu.dcache.tags.warmup_cycle         615829500                       # Cycle when the warmup percentage was hit.
system.cpu.dcache.tags.occ_blocks::cpu.data  1023.903065                       # Average occupied blocks per requestor
system.cpu.dcache.tags.occ_percent::cpu.data     0.999905                       # Average percentage of cache occupancy
system.cpu.dcache.tags.occ_percent::total     0.999905                       # Average percentage of cache occupancy
system.cpu.dcache.tags.occ_task_id_blocks::1024         1024                       # Occupied blocks per task id
system.cpu.dcache.tags.age_task_id_blocks_1024::0           10                       # Occupied blocks per task id
system.cpu.dcache.tags.age_task_id_blocks_1024::1          682                       # Occupied blocks per task id
system.cpu.dcache.tags.age_task_id_blocks_1024::2          328                       # Occupied blocks per task id
system.cpu.dcache.tags.age_task_id_blocks_1024::3            3                       # Occupied blocks per task id
system.cpu.dcache.tags.age_task_id_blocks_1024::4            1                       # Occupied blocks per task id
system.cpu.dcache.tags.occ_task_id_percent::1024            1                       # Percentage of cache occupancy per task id
system.cpu.dcache.tags.tag_accesses        1194385183                       # Number of tag accesses
system.cpu.dcache.tags.data_accesses       1194385183                       # Number of data accesses
system.cpu.dcache.pwrStateResidencyTicks::UNDEFINED 2068525189500                       # Cumulative time (in ticks) in various power states
system.cpu.dcache.ReadReq_hits::cpu.data    203350997                       # number of ReadReq hits
system.cpu.dcache.ReadReq_hits::total       203350997                       # number of ReadReq hits
system.cpu.dcache.WriteReq_hits::cpu.data     71323065                       # number of WriteReq hits
system.cpu.dcache.WriteReq_hits::total       71323065                       # number of WriteReq hits
system.cpu.dcache.demand_hits::cpu.data     274674062                       # number of demand (read+write) hits
system.cpu.dcache.demand_hits::total        274674062                       # number of demand (read+write) hits
system.cpu.dcache.overall_hits::cpu.data    274674062                       # number of overall hits
system.cpu.dcache.overall_hits::total       274674062                       # number of overall hits
system.cpu.dcache.ReadReq_misses::cpu.data     17982293                       # number of ReadReq misses
system.cpu.dcache.ReadReq_misses::total      17982293                       # number of ReadReq misses
system.cpu.dcache.WriteReq_misses::cpu.data      1155494                       # number of WriteReq misses
system.cpu.dcache.WriteReq_misses::total      1155494                       # number of WriteReq misses
system.cpu.dcache.demand_misses::cpu.data     19137787                       # number of demand (read+write) misses
system.cpu.dcache.demand_misses::total       19137787                       # number of demand (read+write) misses
system.cpu.dcache.overall_misses::cpu.data     19137787                       # number of overall misses
system.cpu.dcache.overall_misses::total      19137787                       # number of overall misses
system.cpu.dcache.ReadReq_miss_latency::cpu.data 1064957687500                       # number of ReadReq miss cycles
system.cpu.dcache.ReadReq_miss_latency::total 1064957687500                       # number of ReadReq miss cycles
system.cpu.dcache.WriteReq_miss_latency::cpu.data  50705905500                       # number of WriteReq miss cycles
system.cpu.dcache.WriteReq_miss_latency::total  50705905500                       # number of WriteReq miss cycles
system.cpu.dcache.demand_miss_latency::cpu.data 1115663593000                       # number of demand (read+write) miss cycles
system.cpu.dcache.demand_miss_latency::total 1115663593000                       # number of demand (read+write) miss cycles
system.cpu.dcache.overall_miss_latency::cpu.data 1115663593000                       # number of overall miss cycles
system.cpu.dcache.overall_miss_latency::total 1115663593000                       # number of overall miss cycles
system.cpu.dcache.ReadReq_accesses::cpu.data    221333290                       # number of ReadReq accesses(hits+misses)
system.cpu.dcache.ReadReq_accesses::total    221333290                       # number of ReadReq accesses(hits+misses)
system.cpu.dcache.WriteReq_accesses::cpu.data     72478559                       # number of WriteReq accesses(hits+misses)
system.cpu.dcache.WriteReq_accesses::total     72478559                       # number of WriteReq accesses(hits+misses)
system.cpu.dcache.demand_accesses::cpu.data    293811849                       # number of demand (read+write) accesses
system.cpu.dcache.demand_accesses::total    293811849                       # number of demand (read+write) accesses
system.cpu.dcache.overall_accesses::cpu.data    293811849                       # number of overall (read+write) accesses
system.cpu.dcache.overall_accesses::total    293811849                       # number of overall (read+write) accesses
system.cpu.dcache.ReadReq_miss_rate::cpu.data     0.081245                       # miss rate for ReadReq accesses
system.cpu.dcache.ReadReq_miss_rate::total     0.081245                       # miss rate for ReadReq accesses
system.cpu.dcache.WriteReq_miss_rate::cpu.data     0.015943                       # miss rate for WriteReq accesses
system.cpu.dcache.WriteReq_miss_rate::total     0.015943                       # miss rate for WriteReq accesses
system.cpu.dcache.demand_miss_rate::cpu.data     0.065136                       # miss rate for demand accesses
system.cpu.dcache.demand_miss_rate::total     0.065136                       # miss rate for demand accesses
system.cpu.dcache.overall_miss_rate::cpu.data     0.065136                       # miss rate for overall accesses
system.cpu.dcache.overall_miss_rate::total     0.065136                       # miss rate for overall accesses
system.cpu.dcache.ReadReq_avg_miss_latency::cpu.data 59222.574535                       # average ReadReq miss latency
system.cpu.dcache.ReadReq_avg_miss_latency::total 59222.574535                       # average ReadReq miss latency
system.cpu.dcache.WriteReq_avg_miss_latency::cpu.data 43882.448113                       # average WriteReq miss latency
system.cpu.dcache.WriteReq_avg_miss_latency::total 43882.448113                       # average WriteReq miss latency
system.cpu.dcache.demand_avg_miss_latency::cpu.data 58296.374236                       # average overall miss latency
system.cpu.dcache.demand_avg_miss_latency::total 58296.374236                       # average overall miss latency
system.cpu.dcache.overall_avg_miss_latency::cpu.data 58296.374236                       # average overall miss latency
system.cpu.dcache.overall_avg_miss_latency::total 58296.374236                       # average overall miss latency
system.cpu.dcache.blocked_cycles::no_mshrs            0                       # number of cycles access was blocked
system.cpu.dcache.blocked_cycles::no_targets            0                       # number of cycles access was blocked
system.cpu.dcache.blocked::no_mshrs                 0                       # number of cycles access was blocked
system.cpu.dcache.blocked::no_targets               0                       # number of cycles access was blocked
system.cpu.dcache.avg_blocked_cycles::no_mshrs          nan                       # average number of cycles each access was blocked
system.cpu.dcache.avg_blocked_cycles::no_targets          nan                       # average number of cycles each access was blocked
system.cpu.dcache.writebacks::writebacks      4853599                       # number of writebacks
system.cpu.dcache.writebacks::total           4853599                       # number of writebacks
system.cpu.dcache.ReadReq_mshr_misses::cpu.data     17982293                       # number of ReadReq MSHR misses
system.cpu.dcache.ReadReq_mshr_misses::total     17982293                       # number of ReadReq MSHR misses
system.cpu.dcache.WriteReq_mshr_misses::cpu.data      1155494                       # number of WriteReq MSHR misses
system.cpu.dcache.WriteReq_mshr_misses::total      1155494                       # number of WriteReq MSHR misses
system.cpu.dcache.demand_mshr_misses::cpu.data     19137787                       # number of demand (read+write) MSHR misses
system.cpu.dcache.demand_mshr_misses::total     19137787                       # number of demand (read+write) MSHR misses
system.cpu.dcache.overall_mshr_misses::cpu.data     19137787                       # number of overall MSHR misses
system.cpu.dcache.overall_mshr_misses::total     19137787                       # number of overall MSHR misses
system.cpu.dcache.ReadReq_mshr_miss_latency::cpu.data 1046975394500                       # number of ReadReq MSHR miss cycles
system.cpu.dcache.ReadReq_mshr_miss_latency::total 1046975394500                       # number of ReadReq MSHR miss cycles
system.cpu.dcache.WriteReq_mshr_miss_latency::cpu.data  49550411500                       # number of WriteReq MSHR miss cycles
system.cpu.dcache.WriteReq_mshr_miss_latency::total  49550411500                       # number of WriteReq MSHR miss cycles
system.cpu.dcache.demand_mshr_miss_latency::cpu.data 1096525806000                       # number of demand (read+write) MSHR miss cycles
system.cpu.dcache.demand_mshr_miss_latency::total 1096525806000                       # number of demand (read+write) MSHR miss cycles
system.cpu.dcache.overall_mshr_miss_latency::cpu.data 1096525806000                       # number of overall MSHR miss cycles
system.cpu.dcache.overall_mshr_miss_latency::total 1096525806000                       # number of overall MSHR miss cycles
system.cpu.dcache.ReadReq_mshr_miss_rate::cpu.data     0.081245                       # mshr miss rate for ReadReq accesses
system.cpu.dcache.ReadReq_mshr_miss_rate::total     0.081245                       # mshr miss rate for ReadReq accesses
system.cpu.dcache.WriteReq_mshr_miss_rate::cpu.data     0.015943                       # mshr miss rate for WriteReq accesses
system.cpu.dcache.WriteReq_mshr_miss_rate::total     0.015943                       # mshr miss rate for WriteReq accesses
system.cpu.dcache.demand_mshr_miss_rate::cpu.data     0.065136                       # mshr miss rate for demand accesses
system.cpu.dcache.demand_mshr_miss_rate::total     0.065136                       # mshr miss rate for demand accesses
system.cpu.dcache.overall_mshr_miss_rate::cpu.data     0.065136                       # mshr miss rate for overall accesses
system.cpu.dcache.overall_mshr_miss_rate::total     0.065136                       # mshr miss rate for overall accesses
system.cpu.dcache.ReadReq_avg_mshr_miss_latency::cpu.data 58222.574535                       # average ReadReq mshr miss latency
system.cpu.dcache.ReadReq_avg_mshr_miss_latency::total 58222.574535                       # average ReadReq mshr miss latency
system.cpu.dcache.WriteReq_avg_mshr_miss_latency::cpu.data 42882.448113                       # average WriteReq mshr miss latency
system.cpu.dcache.WriteReq_avg_mshr_miss_latency::total 42882.448113                       # average WriteReq mshr miss latency
system.cpu.dcache.demand_avg_mshr_miss_latency::cpu.data 57296.374236                       # average overall mshr miss latency
system.cpu.dcache.demand_avg_mshr_miss_latency::total 57296.374236                       # average overall mshr miss latency
system.cpu.dcache.overall_avg_mshr_miss_latency::cpu.data 57296.374236                       # average overall mshr miss latency
system.cpu.dcache.overall_avg_mshr_miss_latency::total 57296.374236                       # average overall mshr miss latency
system.cpu.dtb_walker_cache.tags.pwrStateResidencyTicks::UNDEFINED 2068525189500                       # Cumulative time (in ticks) in various power states
system.cpu.dtb_walker_cache.tags.replacements            0                       # number of replacements
system.cpu.dtb_walker_cache.tags.tagsinuse            0                       # Cycle average of tags in use
system.cpu.dtb_walker_cache.tags.total_refs            0                       # Total number of references to valid blocks.
system.cpu.dtb_walker_cache.tags.sampled_refs            0                       # Sample count of references to valid blocks.
system.cpu.dtb_walker_cache.tags.avg_refs          nan                       # Average number of references to valid blocks.
system.cpu.dtb_walker_cache.tags.warmup_cycle            0                       # Cycle when the warmup percentage was hit.
system.cpu.dtb_walker_cache.tags.tag_accesses            0                       # Number of tag accesses
system.cpu.dtb_walker_cache.tags.data_accesses            0                       # Number of data accesses
system.cpu.dtb_walker_cache.pwrStateResidencyTicks::UNDEFINED 2068525189500                       # Cumulative time (in ticks) in various power states
system.cpu.dtb_walker_cache.blocked_cycles::no_mshrs            0                       # number of cycles access was blocked
system.cpu.dtb_walker_cache.blocked_cycles::no_targets            0                       # number of cycles access was blocked
system.cpu.dtb_walker_cache.blocked::no_mshrs            0                       # number of cycles access was blocked
system.cpu.dtb_walker_cache.blocked::no_targets            0                       # number of cycles access was blocked
system.cpu.dtb_walker_cache.avg_blocked_cycles::no_mshrs          nan                       # average number of cycles each access was blocked
system.cpu.dtb_walker_cache.avg_blocked_cycles::no_targets          nan                       # average number of cycles each access was blocked
system.cpu.icache.tags.pwrStateResidencyTicks::UNDEFINED 2068525189500                       # Cumulative time (in ticks) in various power states
system.cpu.icache.tags.replacements             67152                       # number of replacements
system.cpu.icache.tags.tagsinuse           510.161489                       # Cycle average of tags in use
system.cpu.icache.tags.total_refs           677250280                       # Total number of references to valid blocks.
system.cpu.icache.tags.sampled_refs             67664                       # Sample count of references to valid blocks.
system.cpu.icache.tags.avg_refs          10009.019272                       # Average number of references to valid blocks.
system.cpu.icache.tags.warmup_cycle      344466433500                       # Cycle when the warmup percentage was hit.
system.cpu.icache.tags.occ_blocks::cpu.inst   510.161489                       # Average occupied blocks per requestor
system.cpu.icache.tags.occ_percent::cpu.inst     0.996409                       # Average percentage of cache occupancy
system.cpu.icache.tags.occ_percent::total     0.996409                       # Average percentage of cache occupancy
system.cpu.icache.tags.occ_task_id_blocks::1024          512                       # Occupied blocks per task id
system.cpu.icache.tags.age_task_id_blocks_1024::4          512                       # Occupied blocks per task id
system.cpu.icache.tags.occ_task_id_percent::1024            1                       # Percentage of cache occupancy per task id
system.cpu.icache.tags.tag_accesses        2709339440                       # Number of tag accesses
system.cpu.icache.tags.data_accesses       2709339440                       # Number of data accesses
system.cpu.icache.pwrStateResidencyTicks::UNDEFINED 2068525189500                       # Cumulative time (in ticks) in various power states
system.cpu.icache.ReadReq_hits::cpu.inst    677250280                       # number of ReadReq hits
system.cpu.icache.ReadReq_hits::total       677250280                       # number of ReadReq hits
system.cpu.icache.demand_hits::cpu.inst     677250280                       # number of demand (read+write) hits
system.cpu.icache.demand_hits::total        677250280                       # number of demand (read+write) hits
system.cpu.icache.overall_hits::cpu.inst    677250280                       # number of overall hits
system.cpu.icache.overall_hits::total       677250280                       # number of overall hits
system.cpu.icache.ReadReq_misses::cpu.inst        67664                       # number of ReadReq misses
system.cpu.icache.ReadReq_misses::total         67664                       # number of ReadReq misses
system.cpu.icache.demand_misses::cpu.inst        67664                       # number of demand (read+write) misses
system.cpu.icache.demand_misses::total          67664                       # number of demand (read+write) misses
system.cpu.icache.overall_misses::cpu.inst        67664                       # number of overall misses
system.cpu.icache.overall_misses::total         67664                       # number of overall misses
system.cpu.icache.ReadReq_miss_latency::cpu.inst    969639500                       # number of ReadReq miss cycles
system.cpu.icache.ReadReq_miss_latency::total    969639500                       # number of ReadReq miss cycles
system.cpu.icache.demand_miss_latency::cpu.inst    969639500                       # number of demand (read+write) miss cycles
system.cpu.icache.demand_miss_latency::total    969639500                       # number of demand (read+write) miss cycles
system.cpu.icache.overall_miss_latency::cpu.inst    969639500                       # number of overall miss cycles
system.cpu.icache.overall_miss_latency::total    969639500                       # number of overall miss cycles
system.cpu.icache.ReadReq_accesses::cpu.inst    677317944                       # number of ReadReq accesses(hits+misses)
system.cpu.icache.ReadReq_accesses::total    677317944                       # number of ReadReq accesses(hits+misses)
system.cpu.icache.demand_accesses::cpu.inst    677317944                       # number of demand (read+write) accesses
system.cpu.icache.demand_accesses::total    677317944                       # number of demand (read+write) accesses
system.cpu.icache.overall_accesses::cpu.inst    677317944                       # number of overall (read+write) accesses
system.cpu.icache.overall_accesses::total    677317944                       # number of overall (read+write) accesses
system.cpu.icache.ReadReq_miss_rate::cpu.inst     0.000100                       # miss rate for ReadReq accesses
system.cpu.icache.ReadReq_miss_rate::total     0.000100                       # miss rate for ReadReq accesses
system.cpu.icache.demand_miss_rate::cpu.inst     0.000100                       # miss rate for demand accesses
system.cpu.icache.demand_miss_rate::total     0.000100                       # miss rate for demand accesses
system.cpu.icache.overall_miss_rate::cpu.inst     0.000100                       # miss rate for overall accesses
system.cpu.icache.overall_miss_rate::total     0.000100                       # miss rate for overall accesses
system.cpu.icache.ReadReq_avg_miss_latency::cpu.inst 14330.212521                       # average ReadReq miss latency
system.cpu.icache.ReadReq_avg_miss_latency::total 14330.212521                       # average ReadReq miss latency
system.cpu.icache.demand_avg_miss_latency::cpu.inst 14330.212521                       # average overall miss latency
system.cpu.icache.demand_avg_miss_latency::total 14330.212521                       # average overall miss latency
system.cpu.icache.overall_avg_miss_latency::cpu.inst 14330.212521                       # average overall miss latency
system.cpu.icache.overall_avg_miss_latency::total 14330.212521                       # average overall miss latency
system.cpu.icache.blocked_cycles::no_mshrs            0                       # number of cycles access was blocked
system.cpu.icache.blocked_cycles::no_targets            0                       # number of cycles access was blocked
system.cpu.icache.blocked::no_mshrs                 0                       # number of cycles access was blocked
system.cpu.icache.blocked::no_targets               0                       # number of cycles access was blocked
system.cpu.icache.avg_blocked_cycles::no_mshrs          nan                       # average number of cycles each access was blocked
system.cpu.icache.avg_blocked_cycles::no_targets          nan                       # average number of cycles each access was blocked
system.cpu.icache.writebacks::writebacks        67152                       # number of writebacks
system.cpu.icache.writebacks::total             67152                       # number of writebacks
system.cpu.icache.ReadReq_mshr_misses::cpu.inst        67664                       # number of ReadReq MSHR misses
system.cpu.icache.ReadReq_mshr_misses::total        67664                       # number of ReadReq MSHR misses
system.cpu.icache.demand_mshr_misses::cpu.inst        67664                       # number of demand (read+write) MSHR misses
system.cpu.icache.demand_mshr_misses::total        67664                       # number of demand (read+write) MSHR misses
system.cpu.icache.overall_mshr_misses::cpu.inst        67664                       # number of overall MSHR misses
system.cpu.icache.overall_mshr_misses::total        67664                       # number of overall MSHR misses
system.cpu.icache.ReadReq_mshr_miss_latency::cpu.inst    901975500                       # number of ReadReq MSHR miss cycles
system.cpu.icache.ReadReq_mshr_miss_latency::total    901975500                       # number of ReadReq MSHR miss cycles
system.cpu.icache.demand_mshr_miss_latency::cpu.inst    901975500                       # number of demand (read+write) MSHR miss cycles
system.cpu.icache.demand_mshr_miss_latency::total    901975500                       # number of demand (read+write) MSHR miss cycles
system.cpu.icache.overall_mshr_miss_latency::cpu.inst    901975500                       # number of overall MSHR miss cycles
system.cpu.icache.overall_mshr_miss_latency::total    901975500                       # number of overall MSHR miss cycles
system.cpu.icache.ReadReq_mshr_miss_rate::cpu.inst     0.000100                       # mshr miss rate for ReadReq accesses
system.cpu.icache.ReadReq_mshr_miss_rate::total     0.000100                       # mshr miss rate for ReadReq accesses
system.cpu.icache.demand_mshr_miss_rate::cpu.inst     0.000100                       # mshr miss rate for demand accesses
system.cpu.icache.demand_mshr_miss_rate::total     0.000100                       # mshr miss rate for demand accesses
system.cpu.icache.overall_mshr_miss_rate::cpu.inst     0.000100                       # mshr miss rate for overall accesses
system.cpu.icache.overall_mshr_miss_rate::total     0.000100                       # mshr miss rate for overall accesses
system.cpu.icache.ReadReq_avg_mshr_miss_latency::cpu.inst 13330.212521                       # average ReadReq mshr miss latency
system.cpu.icache.ReadReq_avg_mshr_miss_latency::total 13330.212521                       # average ReadReq mshr miss latency
system.cpu.icache.demand_avg_mshr_miss_latency::cpu.inst 13330.212521                       # average overall mshr miss latency
system.cpu.icache.demand_avg_mshr_miss_latency::total 13330.212521                       # average overall mshr miss latency
system.cpu.icache.overall_avg_mshr_miss_latency::cpu.inst 13330.212521                       # average overall mshr miss latency
system.cpu.icache.overall_avg_mshr_miss_latency::total 13330.212521                       # average overall mshr miss latency
system.cpu.itb_walker_cache.tags.pwrStateResidencyTicks::UNDEFINED 2068525189500                       # Cumulative time (in ticks) in various power states
system.cpu.itb_walker_cache.tags.replacements            0                       # number of replacements
system.cpu.itb_walker_cache.tags.tagsinuse            0                       # Cycle average of tags in use
system.cpu.itb_walker_cache.tags.total_refs            0                       # Total number of references to valid blocks.
system.cpu.itb_walker_cache.tags.sampled_refs            0                       # Sample count of references to valid blocks.
system.cpu.itb_walker_cache.tags.avg_refs          nan                       # Average number of references to valid blocks.
system.cpu.itb_walker_cache.tags.warmup_cycle            0                       # Cycle when the warmup percentage was hit.
system.cpu.itb_walker_cache.tags.tag_accesses            0                       # Number of tag accesses
system.cpu.itb_walker_cache.tags.data_accesses            0                       # Number of data accesses
system.cpu.itb_walker_cache.pwrStateResidencyTicks::UNDEFINED 2068525189500                       # Cumulative time (in ticks) in various power states
system.cpu.itb_walker_cache.blocked_cycles::no_mshrs            0                       # number of cycles access was blocked
system.cpu.itb_walker_cache.blocked_cycles::no_targets            0                       # number of cycles access was blocked
system.cpu.itb_walker_cache.blocked::no_mshrs            0                       # number of cycles access was blocked
system.cpu.itb_walker_cache.blocked::no_targets            0                       # number of cycles access was blocked
system.cpu.itb_walker_cache.avg_blocked_cycles::no_mshrs          nan                       # average number of cycles each access was blocked
system.cpu.itb_walker_cache.avg_blocked_cycles::no_targets          nan                       # average number of cycles each access was blocked
system.l2.tags.pwrStateResidencyTicks::UNDEFINED 2068525189500                       # Cumulative time (in ticks) in various power states
system.l2.tags.replacements                  10628367                       # number of replacements
system.l2.tags.tagsinuse                 32643.174290                       # Cycle average of tags in use
system.l2.tags.total_refs                    27420118                       # Total number of references to valid blocks.
system.l2.tags.sampled_refs                  10661135                       # Sample count of references to valid blocks.
system.l2.tags.avg_refs                      2.571970                       # Average number of references to valid blocks.
system.l2.tags.warmup_cycle               21664878000                       # Cycle when the warmup percentage was hit.
system.l2.tags.occ_blocks::writebacks      279.878032                       # Average occupied blocks per requestor
system.l2.tags.occ_blocks::cpu.inst          3.092107                       # Average occupied blocks per requestor
system.l2.tags.occ_blocks::cpu.data      32360.204151                       # Average occupied blocks per requestor
system.l2.tags.occ_percent::writebacks       0.008541                       # Average percentage of cache occupancy
system.l2.tags.occ_percent::cpu.inst         0.000094                       # Average percentage of cache occupancy
system.l2.tags.occ_percent::cpu.data         0.987555                       # Average percentage of cache occupancy
system.l2.tags.occ_percent::total            0.996191                       # Average percentage of cache occupancy
system.l2.tags.occ_task_id_blocks::1024         32768                       # Occupied blocks per task id
system.l2.tags.age_task_id_blocks_1024::0            1                       # Occupied blocks per task id
system.l2.tags.age_task_id_blocks_1024::1          558                       # Occupied blocks per task id
system.l2.tags.age_task_id_blocks_1024::2         4391                       # Occupied blocks per task id
system.l2.tags.age_task_id_blocks_1024::3        18717                       # Occupied blocks per task id
system.l2.tags.age_task_id_blocks_1024::4         9101                       # Occupied blocks per task id
system.l2.tags.occ_task_id_percent::1024            1                       # Percentage of cache occupancy per task id
system.l2.tags.tag_accesses                  49070500                       # Number of tag accesses
system.l2.tags.data_accesses                 49070500                       # Number of data accesses
system.l2.pwrStateResidencyTicks::UNDEFINED 2068525189500                       # Cumulative time (in ticks) in various power states
system.l2.WritebackDirty_hits::writebacks      4853599                       # number of WritebackDirty hits
system.l2.WritebackDirty_hits::total          4853599                       # number of WritebackDirty hits
system.l2.WritebackClean_hits::writebacks        67151                       # number of WritebackClean hits
system.l2.WritebackClean_hits::total            67151                       # number of WritebackClean hits
system.l2.ReadExReq_hits::cpu.data             697037                       # number of ReadExReq hits
system.l2.ReadExReq_hits::total                697037                       # number of ReadExReq hits
system.l2.ReadCleanReq_hits::cpu.inst           66487                       # number of ReadCleanReq hits
system.l2.ReadCleanReq_hits::total              66487                       # number of ReadCleanReq hits
system.l2.ReadSharedReq_hits::cpu.data        7893954                       # number of ReadSharedReq hits
system.l2.ReadSharedReq_hits::total           7893954                       # number of ReadSharedReq hits
system.l2.demand_hits::cpu.inst                 66487                       # number of demand (read+write) hits
system.l2.demand_hits::cpu.data               8590991                       # number of demand (read+write) hits
system.l2.demand_hits::total                  8657478                       # number of demand (read+write) hits
system.l2.overall_hits::cpu.inst                66487                       # number of overall hits
system.l2.overall_hits::cpu.data              8590991                       # number of overall hits
system.l2.overall_hits::total                 8657478                       # number of overall hits
system.l2.ReadExReq_misses::cpu.data           458457                       # number of ReadExReq misses
system.l2.ReadExReq_misses::total              458457                       # number of ReadExReq misses
system.l2.ReadCleanReq_misses::cpu.inst          1177                       # number of ReadCleanReq misses
system.l2.ReadCleanReq_misses::total             1177                       # number of ReadCleanReq misses
system.l2.ReadSharedReq_misses::cpu.data     10088339                       # number of ReadSharedReq misses
system.l2.ReadSharedReq_misses::total        10088339                       # number of ReadSharedReq misses
system.l2.demand_misses::cpu.inst                1177                       # number of demand (read+write) misses
system.l2.demand_misses::cpu.data            10546796                       # number of demand (read+write) misses
system.l2.demand_misses::total               10547973                       # number of demand (read+write) misses
system.l2.overall_misses::cpu.inst               1177                       # number of overall misses
system.l2.overall_misses::cpu.data           10546796                       # number of overall misses
system.l2.overall_misses::total              10547973                       # number of overall misses
system.l2.ReadExReq_miss_latency::cpu.data  40498282000                       # number of ReadExReq miss cycles
system.l2.ReadExReq_miss_latency::total   40498282000                       # number of ReadExReq miss cycles
system.l2.ReadCleanReq_miss_latency::cpu.inst    102365000                       # number of ReadCleanReq miss cycles
system.l2.ReadCleanReq_miss_latency::total    102365000                       # number of ReadCleanReq miss cycles
system.l2.ReadSharedReq_miss_latency::cpu.data 937115437000                       # number of ReadSharedReq miss cycles
system.l2.ReadSharedReq_miss_latency::total 937115437000                       # number of ReadSharedReq miss cycles
system.l2.demand_miss_latency::cpu.inst     102365000                       # number of demand (read+write) miss cycles
system.l2.demand_miss_latency::cpu.data  977613719000                       # number of demand (read+write) miss cycles
system.l2.demand_miss_latency::total     977716084000                       # number of demand (read+write) miss cycles
system.l2.overall_miss_latency::cpu.inst    102365000                       # number of overall miss cycles
system.l2.overall_miss_latency::cpu.data 977613719000                       # number of overall miss cycles
system.l2.overall_miss_latency::total    977716084000                       # number of overall miss cycles
system.l2.WritebackDirty_accesses::writebacks      4853599                       # number of WritebackDirty accesses(hits+misses)
system.l2.WritebackDirty_accesses::total      4853599                       # number of WritebackDirty accesses(hits+misses)
system.l2.WritebackClean_accesses::writebacks        67151                       # number of WritebackClean accesses(hits+misses)
system.l2.WritebackClean_accesses::total        67151                       # number of WritebackClean accesses(hits+misses)
system.l2.ReadExReq_accesses::cpu.data        1155494                       # number of ReadExReq accesses(hits+misses)
system.l2.ReadExReq_accesses::total           1155494                       # number of ReadExReq accesses(hits+misses)
system.l2.ReadCleanReq_accesses::cpu.inst        67664                       # number of ReadCleanReq accesses(hits+misses)
system.l2.ReadCleanReq_accesses::total          67664                       # number of ReadCleanReq accesses(hits+misses)
system.l2.ReadSharedReq_accesses::cpu.data     17982293                       # number of ReadSharedReq accesses(hits+misses)
system.l2.ReadSharedReq_accesses::total      17982293                       # number of ReadSharedReq accesses(hits+misses)
system.l2.demand_accesses::cpu.inst             67664                       # number of demand (read+write) accesses
system.l2.demand_accesses::cpu.data          19137787                       # number of demand (read+write) accesses
system.l2.demand_accesses::total             19205451                       # number of demand (read+write) accesses
system.l2.overall_accesses::cpu.inst            67664                       # number of overall (read+write) accesses
system.l2.overall_accesses::cpu.data         19137787                       # number of overall (read+write) accesses
system.l2.overall_accesses::total            19205451                       # number of overall (read+write) accesses
system.l2.ReadExReq_miss_rate::cpu.data      0.396763                       # miss rate for ReadExReq accesses
system.l2.ReadExReq_miss_rate::total         0.396763                       # miss rate for ReadExReq accesses
system.l2.ReadCleanReq_miss_rate::cpu.inst     0.017395                       # miss rate for ReadCleanReq accesses
system.l2.ReadCleanReq_miss_rate::total      0.017395                       # miss rate for ReadCleanReq accesses
system.l2.ReadSharedReq_miss_rate::cpu.data     0.561015                       # miss rate for ReadSharedReq accesses
system.l2.ReadSharedReq_miss_rate::total     0.561015                       # miss rate for ReadSharedReq accesses
system.l2.demand_miss_rate::cpu.inst         0.017395                       # miss rate for demand accesses
system.l2.demand_miss_rate::cpu.data         0.551098                       # miss rate for demand accesses
system.l2.demand_miss_rate::total            0.549218                       # miss rate for demand accesses
system.l2.overall_miss_rate::cpu.inst        0.017395                       # miss rate for overall accesses
system.l2.overall_miss_rate::cpu.data        0.551098                       # miss rate for overall accesses
system.l2.overall_miss_rate::total           0.549218                       # miss rate for overall accesses
system.l2.ReadExReq_avg_miss_latency::cpu.data 88336.053327                       # average ReadExReq miss latency
system.l2.ReadExReq_avg_miss_latency::total 88336.053327                       # average ReadExReq miss latency
system.l2.ReadCleanReq_avg_miss_latency::cpu.inst 86971.112999                       # average ReadCleanReq miss latency
system.l2.ReadCleanReq_avg_miss_latency::total 86971.112999                       # average ReadCleanReq miss latency
system.l2.ReadSharedReq_avg_miss_latency::cpu.data 92890.954299                       # average ReadSharedReq miss latency
system.l2.ReadSharedReq_avg_miss_latency::total 92890.954299                       # average ReadSharedReq miss latency
system.l2.demand_avg_miss_latency::cpu.inst 86971.112999                       # average overall miss latency
system.l2.demand_avg_miss_latency::cpu.data 92692.958032                       # average overall miss latency
system.l2.demand_avg_miss_latency::total 92692.319558                       # average overall miss latency
system.l2.overall_avg_miss_latency::cpu.inst 86971.112999                       # average overall miss latency
system.l2.overall_avg_miss_latency::cpu.data 92692.958032                       # average overall miss latency
system.l2.overall_avg_miss_latency::total 92692.319558                       # average overall miss latency
system.l2.blocked_cycles::no_mshrs                  0                       # number of cycles access was blocked
system.l2.blocked_cycles::no_targets                0                       # number of cycles access was blocked
system.l2.blocked::no_mshrs                         0                       # number of cycles access was blocked
system.l2.blocked::no_targets                       0                       # number of cycles access was blocked
system.l2.avg_blocked_cycles::no_mshrs            nan                       # average number of cycles each access was blocked
system.l2.avg_blocked_cycles::no_targets          nan                       # average number of cycles each access was blocked
system.l2.writebacks::writebacks              1322077                       # number of writebacks
system.l2.writebacks::total                   1322077                       # number of writebacks
system.l2.CleanEvict_mshr_misses::writebacks       328112                       # number of CleanEvict MSHR misses
system.l2.CleanEvict_mshr_misses::total        328112                       # number of CleanEvict MSHR misses
system.l2.ReadExReq_mshr_misses::cpu.data       458457                       # number of ReadExReq MSHR misses
system.l2.ReadExReq_mshr_misses::total         458457                       # number of ReadExReq MSHR misses
system.l2.ReadCleanReq_mshr_misses::cpu.inst         1177                       # number of ReadCleanReq MSHR misses
system.l2.ReadCleanReq_mshr_misses::total         1177                       # number of ReadCleanReq MSHR misses
system.l2.ReadSharedReq_mshr_misses::cpu.data     10088339                       # number of ReadSharedReq MSHR misses
system.l2.ReadSharedReq_mshr_misses::total     10088339                       # number of ReadSharedReq MSHR misses
system.l2.demand_mshr_misses::cpu.inst           1177                       # number of demand (read+write) MSHR misses
system.l2.demand_mshr_misses::cpu.data       10546796                       # number of demand (read+write) MSHR misses
system.l2.demand_mshr_misses::total          10547973                       # number of demand (read+write) MSHR misses
system.l2.overall_mshr_misses::cpu.inst          1177                       # number of overall MSHR misses
system.l2.overall_mshr_misses::cpu.data      10546796                       # number of overall MSHR misses
system.l2.overall_mshr_misses::total         10547973                       # number of overall MSHR misses
system.l2.ReadExReq_mshr_miss_latency::cpu.data  35913712000                       # number of ReadExReq MSHR miss cycles
system.l2.ReadExReq_mshr_miss_latency::total  35913712000                       # number of ReadExReq MSHR miss cycles
system.l2.ReadCleanReq_mshr_miss_latency::cpu.inst     90595000                       # number of ReadCleanReq MSHR miss cycles
system.l2.ReadCleanReq_mshr_miss_latency::total     90595000                       # number of ReadCleanReq MSHR miss cycles
system.l2.ReadSharedReq_mshr_miss_latency::cpu.data 836232047000                       # number of ReadSharedReq MSHR miss cycles
system.l2.ReadSharedReq_mshr_miss_latency::total 836232047000                       # number of ReadSharedReq MSHR miss cycles
system.l2.demand_mshr_miss_latency::cpu.inst     90595000                       # number of demand (read+write) MSHR miss cycles
system.l2.demand_mshr_miss_latency::cpu.data 872145759000                       # number of demand (read+write) MSHR miss cycles
system.l2.demand_mshr_miss_latency::total 872236354000                       # number of demand (read+write) MSHR miss cycles
system.l2.overall_mshr_miss_latency::cpu.inst     90595000                       # number of overall MSHR miss cycles
system.l2.overall_mshr_miss_latency::cpu.data 872145759000                       # number of overall MSHR miss cycles
system.l2.overall_mshr_miss_latency::total 872236354000                       # number of overall MSHR miss cycles
system.l2.CleanEvict_mshr_miss_rate::writebacks          inf                       # mshr miss rate for CleanEvict accesses
system.l2.CleanEvict_mshr_miss_rate::total          inf                       # mshr miss rate for CleanEvict accesses
system.l2.ReadExReq_mshr_miss_rate::cpu.data     0.396763                       # mshr miss rate for ReadExReq accesses
system.l2.ReadExReq_mshr_miss_rate::total     0.396763                       # mshr miss rate for ReadExReq accesses
system.l2.ReadCleanReq_mshr_miss_rate::cpu.inst     0.017395                       # mshr miss rate for ReadCleanReq accesses
system.l2.ReadCleanReq_mshr_miss_rate::total     0.017395                       # mshr miss rate for ReadCleanReq accesses
system.l2.ReadSharedReq_mshr_miss_rate::cpu.data     0.561015                       # mshr miss rate for ReadSharedReq accesses
system.l2.ReadSharedReq_mshr_miss_rate::total     0.561015                       # mshr miss rate for ReadSharedReq accesses
system.l2.demand_mshr_miss_rate::cpu.inst     0.017395                       # mshr miss rate for demand accesses
system.l2.demand_mshr_miss_rate::cpu.data     0.551098                       # mshr miss rate for demand accesses
system.l2.demand_mshr_miss_rate::total       0.549218                       # mshr miss rate for demand accesses
system.l2.overall_mshr_miss_rate::cpu.inst     0.017395                       # mshr miss rate for overall accesses
system.l2.overall_mshr_miss_rate::cpu.data     0.551098                       # mshr miss rate for overall accesses
system.l2.overall_mshr_miss_rate::total      0.549218                       # mshr miss rate for overall accesses
system.l2.ReadExReq_avg_mshr_miss_latency::cpu.data 78336.053327                       # average ReadExReq mshr miss latency
system.l2.ReadExReq_avg_mshr_miss_latency::total 78336.053327                       # average ReadExReq mshr miss latency
system.l2.ReadCleanReq_avg_mshr_miss_latency::cpu.inst 76971.112999                       # average ReadCleanReq mshr miss latency
system.l2.ReadCleanReq_avg_mshr_miss_latency::total 76971.112999                       # average ReadCleanReq mshr miss latency
system.l2.ReadSharedReq_avg_mshr_miss_latency::cpu.data 82890.954299                       # average ReadSharedReq mshr miss latency
system.l2.ReadSharedReq_avg_mshr_miss_latency::total 82890.954299                       # average ReadSharedReq mshr miss latency
system.l2.demand_avg_mshr_miss_latency::cpu.inst 76971.112999                       # average overall mshr miss latency
system.l2.demand_avg_mshr_miss_latency::cpu.data 82692.958032                       # average overall mshr miss latency
system.l2.demand_avg_mshr_miss_latency::total 82692.319558                       # average overall mshr miss latency
system.l2.overall_avg_mshr_miss_latency::cpu.inst 76971.112999                       # average overall mshr miss latency
system.l2.overall_avg_mshr_miss_latency::cpu.data 82692.958032                       # average overall mshr miss latency
system.l2.overall_avg_mshr_miss_latency::total 82692.319558                       # average overall mshr miss latency
system.membus.snoop_filter.tot_requests      21062654                       # Total number of requests made to the snoop filter.
system.membus.snoop_filter.hit_single_requests     10514681                       # Number of requests hitting in the snoop filter with a single holder of the requested data.
system.membus.snoop_filter.hit_multi_requests            0                       # Number of requests hitting in the snoop filter with multiple (>1) holders of the requested data.
system.membus.snoop_filter.tot_snoops               0                       # Total number of snoops made to the snoop filter.
system.membus.snoop_filter.hit_single_snoops            0                       # Number of snoops hitting in the snoop filter with a single holder of the requested data.
system.membus.snoop_filter.hit_multi_snoops            0                       # Number of snoops hitting in the snoop filter with multiple (>1) holders of the requested data.
system.membus.pwrStateResidencyTicks::UNDEFINED 2068525189500                       # Cumulative time (in ticks) in various power states
system.membus.trans_dist::ReadResp           10089516                       # Transaction distribution
system.membus.trans_dist::WritebackDirty      1322077                       # Transaction distribution
system.membus.trans_dist::CleanEvict          9192604                       # Transaction distribution
system.membus.trans_dist::ReadExReq            458457                       # Transaction distribution
system.membus.trans_dist::ReadExResp           458457                       # Transaction distribution
system.membus.trans_dist::ReadSharedReq      10089516                       # Transaction distribution
system.membus.pkt_count_system.l2.mem_side::system.mem_ctrls.port     31610627                       # Packet count per connected master and slave (bytes)
system.membus.pkt_count_system.l2.mem_side::total     31610627                       # Packet count per connected master and slave (bytes)
system.membus.pkt_count::total               31610627                       # Packet count per connected master and slave (bytes)
system.membus.pkt_size_system.l2.mem_side::system.mem_ctrls.port    379841600                       # Cumulative packet size per connected master and slave (bytes)
system.membus.pkt_size_system.l2.mem_side::total    379841600                       # Cumulative packet size per connected master and slave (bytes)
system.membus.pkt_size::total               379841600                       # Cumulative packet size per connected master and slave (bytes)
system.membus.snoops                                0                       # Total snoops (count)
system.membus.snoopTraffic                          0                       # Total snoop traffic (bytes)
system.membus.snoop_fanout::samples          10547973                       # Request fanout histogram
system.membus.snoop_fanout::mean                    0                       # Request fanout histogram
system.membus.snoop_fanout::stdev                   0                       # Request fanout histogram
system.membus.snoop_fanout::underflows              0      0.00%      0.00% # Request fanout histogram
system.membus.snoop_fanout::0                10547973    100.00%    100.00% # Request fanout histogram
system.membus.snoop_fanout::1                       0      0.00%    100.00% # Request fanout histogram
system.membus.snoop_fanout::overflows               0      0.00%    100.00% # Request fanout histogram
system.membus.snoop_fanout::min_value               0                       # Request fanout histogram
system.membus.snoop_fanout::max_value               0                       # Request fanout histogram
system.membus.snoop_fanout::total            10547973                       # Request fanout histogram
system.membus.reqLayer2.occupancy         23720477000                       # Layer occupancy (ticks)
system.membus.reqLayer2.utilization               1.1                       # Layer utilization (%)
system.membus.respLayer1.occupancy        36409795500                       # Layer occupancy (ticks)
system.membus.respLayer1.utilization              1.8                       # Layer utilization (%)
system.tol2bus.snoop_filter.tot_requests     38409366                       # Total number of requests made to the snoop filter.
system.tol2bus.snoop_filter.hit_single_requests     19203915                       # Number of requests hitting in the snoop filter with a single holder of the requested data.
system.tol2bus.snoop_filter.hit_multi_requests            1                       # Number of requests hitting in the snoop filter with multiple (>1) holders of the requested data.
system.tol2bus.snoop_filter.tot_snoops         441798                       # Total number of snoops made to the snoop filter.
system.tol2bus.snoop_filter.hit_single_snoops       441798                       # Number of snoops hitting in the snoop filter with a single holder of the requested data.
system.tol2bus.snoop_filter.hit_multi_snoops            0                       # Number of snoops hitting in the snoop filter with multiple (>1) holders of the requested data.
system.tol2bus.pwrStateResidencyTicks::UNDEFINED 2068525189500                       # Cumulative time (in ticks) in various power states
system.tol2bus.trans_dist::ReadResp          18049957                       # Transaction distribution
system.tol2bus.trans_dist::WritebackDirty      6175676                       # Transaction distribution
system.tol2bus.trans_dist::WritebackClean        67152                       # Transaction distribution
system.tol2bus.trans_dist::CleanEvict        23589454                       # Transaction distribution
system.tol2bus.trans_dist::ReadExReq          1155494                       # Transaction distribution
system.tol2bus.trans_dist::ReadExResp         1155494                       # Transaction distribution
system.tol2bus.trans_dist::ReadCleanReq         67664                       # Transaction distribution
system.tol2bus.trans_dist::ReadSharedReq     17982293                       # Transaction distribution
system.tol2bus.pkt_count_system.cpu.icache.mem_side::system.l2.cpu_side       202480                       # Packet count per connected master and slave (bytes)
system.tol2bus.pkt_count_system.cpu.dcache.mem_side::system.l2.cpu_side     57412337                       # Packet count per connected master and slave (bytes)
system.tol2bus.pkt_count::total              57614817                       # Packet count per connected master and slave (bytes)
system.tol2bus.pkt_size_system.cpu.icache.mem_side::system.l2.cpu_side      4314112                       # Cumulative packet size per connected master and slave (bytes)
system.tol2bus.pkt_size_system.cpu.dcache.mem_side::system.l2.cpu_side    767724352                       # Cumulative packet size per connected master and slave (bytes)
system.tol2bus.pkt_size::total              772038464                       # Cumulative packet size per connected master and slave (bytes)
system.tol2bus.snoops                        10628367                       # Total snoops (count)
system.tol2bus.snoopTraffic                  42306464                       # Total snoop traffic (bytes)
system.tol2bus.snoop_fanout::samples         29833818                       # Request fanout histogram
system.tol2bus.snoop_fanout::mean            0.014809                       # Request fanout histogram
system.tol2bus.snoop_fanout::stdev           0.120786                       # Request fanout histogram
system.tol2bus.snoop_fanout::underflows             0      0.00%      0.00% # Request fanout histogram
system.tol2bus.snoop_fanout::0               29392019     98.52%     98.52% # Request fanout histogram
system.tol2bus.snoop_fanout::1                 441799      1.48%    100.00% # Request fanout histogram
system.tol2bus.snoop_fanout::2                      0      0.00%    100.00% # Request fanout histogram
system.tol2bus.snoop_fanout::3                      0      0.00%    100.00% # Request fanout histogram
system.tol2bus.snoop_fanout::4                      0      0.00%    100.00% # Request fanout histogram
system.tol2bus.snoop_fanout::overflows              0      0.00%    100.00% # Request fanout histogram
system.tol2bus.snoop_fanout::min_value              0                       # Request fanout histogram
system.tol2bus.snoop_fanout::max_value              1                       # Request fanout histogram
system.tol2bus.snoop_fanout::total           29833818                       # Request fanout histogram
system.tol2bus.reqLayer0.occupancy        21665058500                       # Layer occupancy (ticks)
system.tol2bus.reqLayer0.utilization              1.0                       # Layer utilization (%)
system.tol2bus.respLayer0.occupancy          67664000                       # Layer occupancy (ticks)
system.tol2bus.respLayer0.utilization             0.0                       # Layer utilization (%)
system.tol2bus.respLayer1.occupancy       19137787000                       # Layer occupancy (ticks)
system.tol2bus.respLayer1.utilization             0.9                       # Layer utilization (%)

---------- End Simulation Statistics   ----------
