
---------- Begin Simulation Statistics ----------
sim_seconds                                  1.099156                       # Number of seconds simulated
sim_ticks                                1099155742500                       # Number of ticks simulated
final_tick                               1099155742500                       # Number of ticks from beginning of simulation (restored from checkpoints and never reset)
sim_freq                                 1000000000000                       # Frequency of simulated ticks
host_inst_rate                                 327258                       # Simulator instruction rate (inst/s)
host_op_rate                                   478092                       # Simulator op (including micro ops) rate (op/s)
host_tick_rate                              719415750                       # Simulator tick rate (ticks/s)
host_mem_usage                                 658680                       # Number of bytes of host memory used
host_seconds                                  1527.85                       # Real time elapsed on the host
sim_insts                                   500000001                       # Number of instructions simulated
sim_ops                                     730450447                       # Number of ops (including micro ops) simulated
system.voltage_domain.voltage                       1                       # Voltage in Volts
system.clk_domain.clock                          1000                       # Clock period in ticks
system.mem_ctrls.pwrStateResidencyTicks::UNDEFINED 1099155742500                       # Cumulative time (in ticks) in various power states
system.mem_ctrls.bytes_read::cpu.inst           57984                       # Number of bytes read from this memory
system.mem_ctrls.bytes_read::cpu.data        31639776                       # Number of bytes read from this memory
system.mem_ctrls.bytes_read::total           31697760                       # Number of bytes read from this memory
system.mem_ctrls.bytes_inst_read::cpu.inst        57984                       # Number of instructions bytes read from this memory
system.mem_ctrls.bytes_inst_read::total         57984                       # Number of instructions bytes read from this memory
system.mem_ctrls.bytes_written::writebacks     18068512                       # Number of bytes written to this memory
system.mem_ctrls.bytes_written::total        18068512                       # Number of bytes written to this memory
system.mem_ctrls.num_reads::cpu.inst             1812                       # Number of read requests responded to by this memory
system.mem_ctrls.num_reads::cpu.data           988743                       # Number of read requests responded to by this memory
system.mem_ctrls.num_reads::total              990555                       # Number of read requests responded to by this memory
system.mem_ctrls.num_writes::writebacks        564641                       # Number of write requests responded to by this memory
system.mem_ctrls.num_writes::total             564641                       # Number of write requests responded to by this memory
system.mem_ctrls.bw_read::cpu.inst              52753                       # Total read bandwidth from this memory (bytes/s)
system.mem_ctrls.bw_read::cpu.data           28785526                       # Total read bandwidth from this memory (bytes/s)
system.mem_ctrls.bw_read::total              28838279                       # Total read bandwidth from this memory (bytes/s)
system.mem_ctrls.bw_inst_read::cpu.inst         52753                       # Instruction read bandwidth from this memory (bytes/s)
system.mem_ctrls.bw_inst_read::total            52753                       # Instruction read bandwidth from this memory (bytes/s)
system.mem_ctrls.bw_write::writebacks        16438537                       # Write bandwidth from this memory (bytes/s)
system.mem_ctrls.bw_write::total             16438537                       # Write bandwidth from this memory (bytes/s)
system.mem_ctrls.bw_total::writebacks        16438537                       # Total bandwidth to/from this memory (bytes/s)
system.mem_ctrls.bw_total::cpu.inst             52753                       # Total bandwidth to/from this memory (bytes/s)
system.mem_ctrls.bw_total::cpu.data          28785526                       # Total bandwidth to/from this memory (bytes/s)
system.mem_ctrls.bw_total::total             45276816                       # Total bandwidth to/from this memory (bytes/s)
system.mem_ctrls.readReqs                      990555                       # Number of read requests accepted
system.mem_ctrls.writeReqs                     564641                       # Number of write requests accepted
system.mem_ctrls.readBursts                    990555                       # Number of DRAM read bursts, including those serviced by the write queue
system.mem_ctrls.writeBursts                   564641                       # Number of DRAM write bursts, including those merged in the write queue
system.mem_ctrls.bytesReadDRAM               63366272                       # Total number of bytes read from DRAM
system.mem_ctrls.bytesReadWrQ                   29248                       # Total number of bytes read from write queue
system.mem_ctrls.bytesWritten                31485056                       # Total number of bytes written to DRAM
system.mem_ctrls.bytesReadSys                31697760                       # Total read bytes from the system interface side
system.mem_ctrls.bytesWrittenSys             18068512                       # Total written bytes from the system interface side
system.mem_ctrls.servicedByWrQ                    457                       # Number of DRAM read bursts serviced by the write queue
system.mem_ctrls.mergedWrBursts                 72670                       # Number of DRAM write bursts merged with an existing one
system.mem_ctrls.neitherReadNorWriteReqs            0                       # Number of requests that are neither read nor write
system.mem_ctrls.perBankRdBursts::0             64848                       # Per bank write bursts
system.mem_ctrls.perBankRdBursts::1             62846                       # Per bank write bursts
system.mem_ctrls.perBankRdBursts::2             61590                       # Per bank write bursts
system.mem_ctrls.perBankRdBursts::3             60528                       # Per bank write bursts
system.mem_ctrls.perBankRdBursts::4             59640                       # Per bank write bursts
system.mem_ctrls.perBankRdBursts::5             60050                       # Per bank write bursts
system.mem_ctrls.perBankRdBursts::6             62366                       # Per bank write bursts
system.mem_ctrls.perBankRdBursts::7             61447                       # Per bank write bursts
system.mem_ctrls.perBankRdBursts::8             58849                       # Per bank write bursts
system.mem_ctrls.perBankRdBursts::9             58026                       # Per bank write bursts
system.mem_ctrls.perBankRdBursts::10            61585                       # Per bank write bursts
system.mem_ctrls.perBankRdBursts::11            62999                       # Per bank write bursts
system.mem_ctrls.perBankRdBursts::12            63561                       # Per bank write bursts
system.mem_ctrls.perBankRdBursts::13            63331                       # Per bank write bursts
system.mem_ctrls.perBankRdBursts::14            63922                       # Per bank write bursts
system.mem_ctrls.perBankRdBursts::15            64510                       # Per bank write bursts
system.mem_ctrls.perBankWrBursts::0             32332                       # Per bank write bursts
system.mem_ctrls.perBankWrBursts::1             31133                       # Per bank write bursts
system.mem_ctrls.perBankWrBursts::2             30466                       # Per bank write bursts
system.mem_ctrls.perBankWrBursts::3             29786                       # Per bank write bursts
system.mem_ctrls.perBankWrBursts::4             29132                       # Per bank write bursts
system.mem_ctrls.perBankWrBursts::5             29014                       # Per bank write bursts
system.mem_ctrls.perBankWrBursts::6             30190                       # Per bank write bursts
system.mem_ctrls.perBankWrBursts::7             30302                       # Per bank write bursts
system.mem_ctrls.perBankWrBursts::8             29870                       # Per bank write bursts
system.mem_ctrls.perBankWrBursts::9             29625                       # Per bank write bursts
system.mem_ctrls.perBankWrBursts::10            30740                       # Per bank write bursts
system.mem_ctrls.perBankWrBursts::11            31064                       # Per bank write bursts
system.mem_ctrls.perBankWrBursts::12            31496                       # Per bank write bursts
system.mem_ctrls.perBankWrBursts::13            32056                       # Per bank write bursts
system.mem_ctrls.perBankWrBursts::14            32414                       # Per bank write bursts
system.mem_ctrls.perBankWrBursts::15            32334                       # Per bank write bursts
system.mem_ctrls.numRdRetry                         0                       # Number of times read queue was full causing retry
system.mem_ctrls.numWrRetry                         0                       # Number of times write queue was full causing retry
system.mem_ctrls.totGap                  1099152497500                       # Total gap between requests
system.mem_ctrls.readPktSize::0                     0                       # Read request sizes (log2)
system.mem_ctrls.readPktSize::1                     0                       # Read request sizes (log2)
system.mem_ctrls.readPktSize::2                     0                       # Read request sizes (log2)
system.mem_ctrls.readPktSize::3                     0                       # Read request sizes (log2)
system.mem_ctrls.readPktSize::4                     0                       # Read request sizes (log2)
system.mem_ctrls.readPktSize::5                990555                       # Read request sizes (log2)
system.mem_ctrls.readPktSize::6                     0                       # Read request sizes (log2)
system.mem_ctrls.writePktSize::0                    0                       # Write request sizes (log2)
system.mem_ctrls.writePktSize::1                    0                       # Write request sizes (log2)
system.mem_ctrls.writePktSize::2                    0                       # Write request sizes (log2)
system.mem_ctrls.writePktSize::3                    0                       # Write request sizes (log2)
system.mem_ctrls.writePktSize::4                    0                       # Write request sizes (log2)
system.mem_ctrls.writePktSize::5               564641                       # Write request sizes (log2)
system.mem_ctrls.writePktSize::6                    0                       # Write request sizes (log2)
system.mem_ctrls.rdQLenPdf::0                  973654                       # What read queue length does an incoming req see
system.mem_ctrls.rdQLenPdf::1                    8179                       # What read queue length does an incoming req see
system.mem_ctrls.rdQLenPdf::2                    8250                       # What read queue length does an incoming req see
system.mem_ctrls.rdQLenPdf::3                      15                       # What read queue length does an incoming req see
system.mem_ctrls.rdQLenPdf::4                       0                       # What read queue length does an incoming req see
system.mem_ctrls.rdQLenPdf::5                       0                       # What read queue length does an incoming req see
system.mem_ctrls.rdQLenPdf::6                       0                       # What read queue length does an incoming req see
system.mem_ctrls.rdQLenPdf::7                       0                       # What read queue length does an incoming req see
system.mem_ctrls.rdQLenPdf::8                       0                       # What read queue length does an incoming req see
system.mem_ctrls.rdQLenPdf::9                       0                       # What read queue length does an incoming req see
system.mem_ctrls.rdQLenPdf::10                      0                       # What read queue length does an incoming req see
system.mem_ctrls.rdQLenPdf::11                      0                       # What read queue length does an incoming req see
system.mem_ctrls.rdQLenPdf::12                      0                       # What read queue length does an incoming req see
system.mem_ctrls.rdQLenPdf::13                      0                       # What read queue length does an incoming req see
system.mem_ctrls.rdQLenPdf::14                      0                       # What read queue length does an incoming req see
system.mem_ctrls.rdQLenPdf::15                      0                       # What read queue length does an incoming req see
system.mem_ctrls.rdQLenPdf::16                      0                       # What read queue length does an incoming req see
system.mem_ctrls.rdQLenPdf::17                      0                       # What read queue length does an incoming req see
system.mem_ctrls.rdQLenPdf::18                      0                       # What read queue length does an incoming req see
system.mem_ctrls.rdQLenPdf::19                      0                       # What read queue length does an incoming req see
system.mem_ctrls.rdQLenPdf::20                      0                       # What read queue length does an incoming req see
system.mem_ctrls.rdQLenPdf::21                      0                       # What read queue length does an incoming req see
system.mem_ctrls.rdQLenPdf::22                      0                       # What read queue length does an incoming req see
system.mem_ctrls.rdQLenPdf::23                      0                       # What read queue length does an incoming req see
system.mem_ctrls.rdQLenPdf::24                      0                       # What read queue length does an incoming req see
system.mem_ctrls.rdQLenPdf::25                      0                       # What read queue length does an incoming req see
system.mem_ctrls.rdQLenPdf::26                      0                       # What read queue length does an incoming req see
system.mem_ctrls.rdQLenPdf::27                      0                       # What read queue length does an incoming req see
system.mem_ctrls.rdQLenPdf::28                      0                       # What read queue length does an incoming req see
system.mem_ctrls.rdQLenPdf::29                      0                       # What read queue length does an incoming req see
system.mem_ctrls.rdQLenPdf::30                      0                       # What read queue length does an incoming req see
system.mem_ctrls.rdQLenPdf::31                      0                       # What read queue length does an incoming req see
system.mem_ctrls.wrQLenPdf::0                       1                       # What write queue length does an incoming req see
system.mem_ctrls.wrQLenPdf::1                       1                       # What write queue length does an incoming req see
system.mem_ctrls.wrQLenPdf::2                       1                       # What write queue length does an incoming req see
system.mem_ctrls.wrQLenPdf::3                       1                       # What write queue length does an incoming req see
system.mem_ctrls.wrQLenPdf::4                       1                       # What write queue length does an incoming req see
system.mem_ctrls.wrQLenPdf::5                       1                       # What write queue length does an incoming req see
system.mem_ctrls.wrQLenPdf::6                       1                       # What write queue length does an incoming req see
system.mem_ctrls.wrQLenPdf::7                       1                       # What write queue length does an incoming req see
system.mem_ctrls.wrQLenPdf::8                       1                       # What write queue length does an incoming req see
system.mem_ctrls.wrQLenPdf::9                       1                       # What write queue length does an incoming req see
system.mem_ctrls.wrQLenPdf::10                      1                       # What write queue length does an incoming req see
system.mem_ctrls.wrQLenPdf::11                      1                       # What write queue length does an incoming req see
system.mem_ctrls.wrQLenPdf::12                      1                       # What write queue length does an incoming req see
system.mem_ctrls.wrQLenPdf::13                      1                       # What write queue length does an incoming req see
system.mem_ctrls.wrQLenPdf::14                      1                       # What write queue length does an incoming req see
system.mem_ctrls.wrQLenPdf::15                  16739                       # What write queue length does an incoming req see
system.mem_ctrls.wrQLenPdf::16                  17897                       # What write queue length does an incoming req see
system.mem_ctrls.wrQLenPdf::17                  28582                       # What write queue length does an incoming req see
system.mem_ctrls.wrQLenPdf::18                  28582                       # What write queue length does an incoming req see
system.mem_ctrls.wrQLenPdf::19                  28581                       # What write queue length does an incoming req see
system.mem_ctrls.wrQLenPdf::20                  28581                       # What write queue length does an incoming req see
system.mem_ctrls.wrQLenPdf::21                  28579                       # What write queue length does an incoming req see
system.mem_ctrls.wrQLenPdf::22                  28581                       # What write queue length does an incoming req see
system.mem_ctrls.wrQLenPdf::23                  28580                       # What write queue length does an incoming req see
system.mem_ctrls.wrQLenPdf::24                  28579                       # What write queue length does an incoming req see
system.mem_ctrls.wrQLenPdf::25                  28583                       # What write queue length does an incoming req see
system.mem_ctrls.wrQLenPdf::26                  28580                       # What write queue length does an incoming req see
system.mem_ctrls.wrQLenPdf::27                  28580                       # What write queue length does an incoming req see
system.mem_ctrls.wrQLenPdf::28                  28586                       # What write queue length does an incoming req see
system.mem_ctrls.wrQLenPdf::29                  28601                       # What write queue length does an incoming req see
system.mem_ctrls.wrQLenPdf::30                  28584                       # What write queue length does an incoming req see
system.mem_ctrls.wrQLenPdf::31                  28582                       # What write queue length does an incoming req see
system.mem_ctrls.wrQLenPdf::32                  28579                       # What write queue length does an incoming req see
system.mem_ctrls.wrQLenPdf::33                      0                       # What write queue length does an incoming req see
system.mem_ctrls.wrQLenPdf::34                      0                       # What write queue length does an incoming req see
system.mem_ctrls.wrQLenPdf::35                      0                       # What write queue length does an incoming req see
system.mem_ctrls.wrQLenPdf::36                      0                       # What write queue length does an incoming req see
system.mem_ctrls.wrQLenPdf::37                      0                       # What write queue length does an incoming req see
system.mem_ctrls.wrQLenPdf::38                      0                       # What write queue length does an incoming req see
system.mem_ctrls.wrQLenPdf::39                      0                       # What write queue length does an incoming req see
system.mem_ctrls.wrQLenPdf::40                      0                       # What write queue length does an incoming req see
system.mem_ctrls.wrQLenPdf::41                      0                       # What write queue length does an incoming req see
system.mem_ctrls.wrQLenPdf::42                      0                       # What write queue length does an incoming req see
system.mem_ctrls.wrQLenPdf::43                      0                       # What write queue length does an incoming req see
system.mem_ctrls.wrQLenPdf::44                      0                       # What write queue length does an incoming req see
system.mem_ctrls.wrQLenPdf::45                      0                       # What write queue length does an incoming req see
system.mem_ctrls.wrQLenPdf::46                      0                       # What write queue length does an incoming req see
system.mem_ctrls.wrQLenPdf::47                      0                       # What write queue length does an incoming req see
system.mem_ctrls.wrQLenPdf::48                      0                       # What write queue length does an incoming req see
system.mem_ctrls.wrQLenPdf::49                      0                       # What write queue length does an incoming req see
system.mem_ctrls.wrQLenPdf::50                      0                       # What write queue length does an incoming req see
system.mem_ctrls.wrQLenPdf::51                      0                       # What write queue length does an incoming req see
system.mem_ctrls.wrQLenPdf::52                      0                       # What write queue length does an incoming req see
system.mem_ctrls.wrQLenPdf::53                      0                       # What write queue length does an incoming req see
system.mem_ctrls.wrQLenPdf::54                      0                       # What write queue length does an incoming req see
system.mem_ctrls.wrQLenPdf::55                      0                       # What write queue length does an incoming req see
system.mem_ctrls.wrQLenPdf::56                      0                       # What write queue length does an incoming req see
system.mem_ctrls.wrQLenPdf::57                      0                       # What write queue length does an incoming req see
system.mem_ctrls.wrQLenPdf::58                      0                       # What write queue length does an incoming req see
system.mem_ctrls.wrQLenPdf::59                      0                       # What write queue length does an incoming req see
system.mem_ctrls.wrQLenPdf::60                      0                       # What write queue length does an incoming req see
system.mem_ctrls.wrQLenPdf::61                      0                       # What write queue length does an incoming req see
system.mem_ctrls.wrQLenPdf::62                      0                       # What write queue length does an incoming req see
system.mem_ctrls.wrQLenPdf::63                      0                       # What write queue length does an incoming req see
system.mem_ctrls.bytesPerActivate::samples       736921                       # Bytes accessed per row activation
system.mem_ctrls.bytesPerActivate::mean    128.712934                       # Bytes accessed per row activation
system.mem_ctrls.bytesPerActivate::gmean    92.237011                       # Bytes accessed per row activation
system.mem_ctrls.bytesPerActivate::stdev   165.448841                       # Bytes accessed per row activation
system.mem_ctrls.bytesPerActivate::0-127       517532     70.23%     70.23% # Bytes accessed per row activation
system.mem_ctrls.bytesPerActivate::128-255       139103     18.88%     89.11% # Bytes accessed per row activation
system.mem_ctrls.bytesPerActivate::256-383        29836      4.05%     93.15% # Bytes accessed per row activation
system.mem_ctrls.bytesPerActivate::384-511        12453      1.69%     94.84% # Bytes accessed per row activation
system.mem_ctrls.bytesPerActivate::512-639        17121      2.32%     97.17% # Bytes accessed per row activation
system.mem_ctrls.bytesPerActivate::640-767         4742      0.64%     97.81% # Bytes accessed per row activation
system.mem_ctrls.bytesPerActivate::768-895         1876      0.25%     98.07% # Bytes accessed per row activation
system.mem_ctrls.bytesPerActivate::896-1023         1392      0.19%     98.25% # Bytes accessed per row activation
system.mem_ctrls.bytesPerActivate::1024-1151        12866      1.75%    100.00% # Bytes accessed per row activation
system.mem_ctrls.bytesPerActivate::total       736921                       # Bytes accessed per row activation
system.mem_ctrls.rdPerTurnAround::samples        28579                       # Reads before turning the bus around for writes
system.mem_ctrls.rdPerTurnAround::mean      34.165016                       # Reads before turning the bus around for writes
system.mem_ctrls.rdPerTurnAround::gmean     26.488870                       # Reads before turning the bus around for writes
system.mem_ctrls.rdPerTurnAround::stdev    281.291380                       # Reads before turning the bus around for writes
system.mem_ctrls.rdPerTurnAround::0-2047        28571     99.97%     99.97% # Reads before turning the bus around for writes
system.mem_ctrls.rdPerTurnAround::2048-4095            1      0.00%     99.98% # Reads before turning the bus around for writes
system.mem_ctrls.rdPerTurnAround::4096-6143            3      0.01%     99.99% # Reads before turning the bus around for writes
system.mem_ctrls.rdPerTurnAround::8192-10239            2      0.01%     99.99% # Reads before turning the bus around for writes
system.mem_ctrls.rdPerTurnAround::10240-12287            1      0.00%    100.00% # Reads before turning the bus around for writes
system.mem_ctrls.rdPerTurnAround::40960-43007            1      0.00%    100.00% # Reads before turning the bus around for writes
system.mem_ctrls.rdPerTurnAround::total         28579                       # Reads before turning the bus around for writes
system.mem_ctrls.wrPerTurnAround::samples        28579                       # Writes before turning the bus around for reads
system.mem_ctrls.wrPerTurnAround::mean      17.213828                       # Writes before turning the bus around for reads
system.mem_ctrls.wrPerTurnAround::gmean     17.186689                       # Writes before turning the bus around for reads
system.mem_ctrls.wrPerTurnAround::stdev      0.958519                       # Writes before turning the bus around for reads
system.mem_ctrls.wrPerTurnAround::16            10677     37.36%     37.36% # Writes before turning the bus around for reads
system.mem_ctrls.wrPerTurnAround::17             1163      4.07%     41.43% # Writes before turning the bus around for reads
system.mem_ctrls.wrPerTurnAround::18            16690     58.40%     99.83% # Writes before turning the bus around for reads
system.mem_ctrls.wrPerTurnAround::19               49      0.17%    100.00% # Writes before turning the bus around for reads
system.mem_ctrls.wrPerTurnAround::total         28579                       # Writes before turning the bus around for reads
system.mem_ctrls.totQLat                  26288835000                       # Total ticks spent queuing
system.mem_ctrls.totMemAccLat             44853172500                       # Total ticks spent from burst creation until serviced by the DRAM
system.mem_ctrls.totBusLat                 4950490000                       # Total ticks spent in databus transfers
system.mem_ctrls.avgQLat                     26551.75                       # Average queueing delay per DRAM burst
system.mem_ctrls.avgBusLat                    5000.00                       # Average bus latency per DRAM burst
system.mem_ctrls.avgMemAccLat                45301.75                       # Average memory access latency per DRAM burst
system.mem_ctrls.avgRdBW                        57.65                       # Average DRAM read bandwidth in MiByte/s
system.mem_ctrls.avgWrBW                        28.64                       # Average achieved write bandwidth in MiByte/s
system.mem_ctrls.avgRdBWSys                     28.84                       # Average system read bandwidth in MiByte/s
system.mem_ctrls.avgWrBWSys                     16.44                       # Average system write bandwidth in MiByte/s
system.mem_ctrls.peakBW                      12800.00                       # Theoretical peak bandwidth in MiByte/s
system.mem_ctrls.busUtil                         0.67                       # Data bus utilization in percentage
system.mem_ctrls.busUtilRead                     0.45                       # Data bus utilization in percentage for reads
system.mem_ctrls.busUtilWrite                    0.22                       # Data bus utilization in percentage for writes
system.mem_ctrls.avgRdQLen                       1.00                       # Average read queue length when enqueuing
system.mem_ctrls.avgWrQLen                      23.96                       # Average write queue length when enqueuing
system.mem_ctrls.readRowHits                   531192                       # Number of row buffer hits during reads
system.mem_ctrls.writeRowHits                  213938                       # Number of row buffer hits during writes
system.mem_ctrls.readRowHitRate                 53.65                       # Row buffer hit rate for reads
system.mem_ctrls.writeRowHitRate                43.49                       # Row buffer hit rate for writes
system.mem_ctrls.avgGap                     706761.40                       # Average gap between requests
system.mem_ctrls.pageHitRate                    50.28                       # Row buffer hit rate, read and write combined
system.mem_ctrls_0.actEnergy               2607913560                       # Energy for activate commands per rank (pJ)
system.mem_ctrls_0.preEnergy               1386135135                       # Energy for precharge commands per rank (pJ)
system.mem_ctrls_0.readEnergy              3522269100                       # Energy for read commands per rank (pJ)
system.mem_ctrls_0.writeEnergy             1265093100                       # Energy for write commands per rank (pJ)
system.mem_ctrls_0.refreshEnergy         42876671760.000008                       # Energy for refresh commands per rank (pJ)
system.mem_ctrls_0.actBackEnergy          24728981460                       # Energy for active background per rank (pJ)
system.mem_ctrls_0.preBackEnergy           1610219040                       # Energy for precharge background per rank (pJ)
system.mem_ctrls_0.actPowerDownEnergy    145374568140                       # Energy for active power-down per rank (pJ)
system.mem_ctrls_0.prePowerDownEnergy     43756851840                       # Energy for precharge power-down per rank (pJ)
system.mem_ctrls_0.selfRefreshEnergy     149877089535                       # Energy for self refresh per rank (pJ)
system.mem_ctrls_0.totalEnergy           417016531680                       # Total energy per rank (pJ)
system.mem_ctrls_0.averagePower            379.397127                       # Core power per rank (mW)
system.mem_ctrls_0.totalIdleTime         1040705000000                       # Total Idle time Per DRAM Rank
system.mem_ctrls_0.memoryStateTime::IDLE   2288730500                       # Time in different power states
system.mem_ctrls_0.memoryStateTime::REF   18181356000                       # Time in different power states
system.mem_ctrls_0.memoryStateTime::SREF 607954307000                       # Time in different power states
system.mem_ctrls_0.memoryStateTime::PRE_PDN 113949940750                       # Time in different power states
system.mem_ctrls_0.memoryStateTime::ACT   37977985000                       # Time in different power states
system.mem_ctrls_0.memoryStateTime::ACT_PDN 318803423250                       # Time in different power states
system.mem_ctrls_1.actEnergy               2653709520                       # Energy for activate commands per rank (pJ)
system.mem_ctrls_1.preEnergy               1410480060                       # Energy for precharge commands per rank (pJ)
system.mem_ctrls_1.readEnergy              3547030620                       # Energy for read commands per rank (pJ)
system.mem_ctrls_1.writeEnergy             1302906780                       # Energy for write commands per rank (pJ)
system.mem_ctrls_1.refreshEnergy         42619137600.000008                       # Energy for refresh commands per rank (pJ)
system.mem_ctrls_1.actBackEnergy          24830582820                       # Energy for active background per rank (pJ)
system.mem_ctrls_1.preBackEnergy           1617742080                       # Energy for precharge background per rank (pJ)
system.mem_ctrls_1.actPowerDownEnergy    144058896420                       # Energy for active power-down per rank (pJ)
system.mem_ctrls_1.prePowerDownEnergy     43579331520                       # Energy for precharge power-down per rank (pJ)
system.mem_ctrls_1.selfRefreshEnergy     150610057035                       # Energy for self refresh per rank (pJ)
system.mem_ctrls_1.totalEnergy           416240413515                       # Total energy per rank (pJ)
system.mem_ctrls_1.averagePower            378.691022                       # Core power per rank (mW)
system.mem_ctrls_1.totalIdleTime         1040427302500                       # Total Idle time Per DRAM Rank
system.mem_ctrls_1.memoryStateTime::IDLE   2304072250                       # Time in different power states
system.mem_ctrls_1.memoryStateTime::REF   18072200000                       # Time in different power states
system.mem_ctrls_1.memoryStateTime::SREF 611059937750                       # Time in different power states
system.mem_ctrls_1.memoryStateTime::PRE_PDN 113487523250                       # Time in different power states
system.mem_ctrls_1.memoryStateTime::ACT   38313952750                       # Time in different power states
system.mem_ctrls_1.memoryStateTime::ACT_PDN 315918056500                       # Time in different power states
system.pwrStateResidencyTicks::UNDEFINED 1099155742500                       # Cumulative time (in ticks) in various power states
system.cpu_voltage_domain.voltage                   1                       # Voltage in Volts
system.cpu_clk_domain.clock                       500                       # Clock period in ticks
system.cpu.dtb.walker.pwrStateResidencyTicks::UNDEFINED 1099155742500                       # Cumulative time (in ticks) in various power states
system.cpu.apic_clk_domain.clock                 8000                       # Clock period in ticks
system.cpu.interrupts.pwrStateResidencyTicks::UNDEFINED 1099155742500                       # Cumulative time (in ticks) in various power states
system.cpu.itb.walker.pwrStateResidencyTicks::UNDEFINED 1099155742500                       # Cumulative time (in ticks) in various power states
system.cpu.workload.num_syscalls                   86                       # Number of system calls
system.cpu.pwrStateResidencyTicks::ON    1099155742500                       # Cumulative time (in ticks) in various power states
system.cpu.numCycles                       2198311485                       # number of cpu cycles simulated
system.cpu.numWorkItemsStarted                      0                       # number of work items this cpu started
system.cpu.numWorkItemsCompleted                    0                       # number of work items this cpu completed
system.cpu.committedInsts                   500000001                       # Number of instructions committed
system.cpu.committedOps                     730450447                       # Number of ops (including micro ops) committed
system.cpu.num_int_alu_accesses             729688906                       # Number of integer alu accesses
system.cpu.num_fp_alu_accesses                    663                       # Number of float alu accesses
system.cpu.num_func_calls                     1453961                       # number of times a function call or return occured
system.cpu.num_conditional_control_insts     31770496                       # number of instructions that are conditional controls
system.cpu.num_int_insts                    729688906                       # number of integer instructions
system.cpu.num_fp_insts                           663                       # number of float instructions
system.cpu.num_int_register_reads          1698743411                       # number of times the integer registers were read
system.cpu.num_int_register_writes          621892950                       # number of times the integer registers were written
system.cpu.num_fp_register_reads                 1009                       # number of times the floating registers were read
system.cpu.num_fp_register_writes                 429                       # number of times the floating registers were written
system.cpu.num_cc_register_reads            180840559                       # number of times the CC registers were read
system.cpu.num_cc_register_writes           276245121                       # number of times the CC registers were written
system.cpu.num_mem_refs                     295985461                       # number of memory refs
system.cpu.num_load_insts                   225946751                       # Number of load instructions
system.cpu.num_store_insts                   70038710                       # Number of store instructions
system.cpu.num_idle_cycles                          0                       # Number of idle cycles
system.cpu.num_busy_cycles                 2198311485                       # Number of busy cycles
system.cpu.not_idle_fraction                        1                       # Percentage of non-idle cycles
system.cpu.idle_fraction                            0                       # Percentage of idle cycles
system.cpu.Branches                          37843296                       # Number of branches fetched
system.cpu.op_class::No_OpClass                 94740      0.01%      0.01% # Class of executed instruction
system.cpu.op_class::IntAlu                 434349067     59.46%     59.48% # Class of executed instruction
system.cpu.op_class::IntMult                    20662      0.00%     59.48% # Class of executed instruction
system.cpu.op_class::IntDiv                       119      0.00%     59.48% # Class of executed instruction
system.cpu.op_class::FloatAdd                     398      0.00%     59.48% # Class of executed instruction
system.cpu.op_class::FloatCmp                       0      0.00%     59.48% # Class of executed instruction
system.cpu.op_class::FloatCvt                       0      0.00%     59.48% # Class of executed instruction
system.cpu.op_class::FloatMult                      0      0.00%     59.48% # Class of executed instruction
system.cpu.op_class::FloatDiv                       0      0.00%     59.48% # Class of executed instruction
system.cpu.op_class::FloatSqrt                      0      0.00%     59.48% # Class of executed instruction
system.cpu.op_class::SimdAdd                        0      0.00%     59.48% # Class of executed instruction
system.cpu.op_class::SimdAddAcc                     0      0.00%     59.48% # Class of executed instruction
system.cpu.op_class::SimdAlu                        0      0.00%     59.48% # Class of executed instruction
system.cpu.op_class::SimdCmp                        0      0.00%     59.48% # Class of executed instruction
system.cpu.op_class::SimdCvt                        0      0.00%     59.48% # Class of executed instruction
system.cpu.op_class::SimdMisc                       0      0.00%     59.48% # Class of executed instruction
system.cpu.op_class::SimdMult                       0      0.00%     59.48% # Class of executed instruction
system.cpu.op_class::SimdMultAcc                    0      0.00%     59.48% # Class of executed instruction
system.cpu.op_class::SimdShift                      0      0.00%     59.48% # Class of executed instruction
system.cpu.op_class::SimdShiftAcc                   0      0.00%     59.48% # Class of executed instruction
system.cpu.op_class::SimdSqrt                       0      0.00%     59.48% # Class of executed instruction
system.cpu.op_class::SimdFloatAdd                   0      0.00%     59.48% # Class of executed instruction
system.cpu.op_class::SimdFloatAlu                   0      0.00%     59.48% # Class of executed instruction
system.cpu.op_class::SimdFloatCmp                   0      0.00%     59.48% # Class of executed instruction
system.cpu.op_class::SimdFloatCvt                   0      0.00%     59.48% # Class of executed instruction
system.cpu.op_class::SimdFloatDiv                   0      0.00%     59.48% # Class of executed instruction
system.cpu.op_class::SimdFloatMisc                  0      0.00%     59.48% # Class of executed instruction
system.cpu.op_class::SimdFloatMult                  0      0.00%     59.48% # Class of executed instruction
system.cpu.op_class::SimdFloatMultAcc               0      0.00%     59.48% # Class of executed instruction
system.cpu.op_class::SimdFloatSqrt                  0      0.00%     59.48% # Class of executed instruction
system.cpu.op_class::MemRead                225946751     30.93%     90.41% # Class of executed instruction
system.cpu.op_class::MemWrite                70038710      9.59%    100.00% # Class of executed instruction
system.cpu.op_class::IprAccess                      0      0.00%    100.00% # Class of executed instruction
system.cpu.op_class::InstPrefetch                   0      0.00%    100.00% # Class of executed instruction
system.cpu.op_class::total                  730450447                       # Class of executed instruction
system.cpu.dcache.tags.pwrStateResidencyTicks::UNDEFINED 1099155742500                       # Cumulative time (in ticks) in various power states
system.cpu.dcache.tags.replacements           2684590                       # number of replacements
system.cpu.dcache.tags.tagsinuse          2042.165147                       # Cycle average of tags in use
system.cpu.dcache.tags.total_refs           293298836                       # Total number of references to valid blocks.
system.cpu.dcache.tags.sampled_refs           2686638                       # Sample count of references to valid blocks.
system.cpu.dcache.tags.avg_refs            109.169466                       # Average number of references to valid blocks.
system.cpu.dcache.tags.warmup_cycle        3852955500                       # Cycle when the warmup percentage was hit.
system.cpu.dcache.tags.occ_blocks::cpu.data  2042.165147                       # Average occupied blocks per requestor
system.cpu.dcache.tags.occ_percent::cpu.data     0.997151                       # Average percentage of cache occupancy
system.cpu.dcache.tags.occ_percent::total     0.997151                       # Average percentage of cache occupancy
system.cpu.dcache.tags.occ_task_id_blocks::1024         2048                       # Occupied blocks per task id
system.cpu.dcache.tags.age_task_id_blocks_1024::0            1                       # Occupied blocks per task id
system.cpu.dcache.tags.age_task_id_blocks_1024::1            3                       # Occupied blocks per task id
system.cpu.dcache.tags.age_task_id_blocks_1024::2           32                       # Occupied blocks per task id
system.cpu.dcache.tags.age_task_id_blocks_1024::3         1769                       # Occupied blocks per task id
system.cpu.dcache.tags.age_task_id_blocks_1024::4          243                       # Occupied blocks per task id
system.cpu.dcache.tags.occ_task_id_percent::1024            1                       # Percentage of cache occupancy per task id
system.cpu.dcache.tags.tag_accesses        1186628534                       # Number of tag accesses
system.cpu.dcache.tags.data_accesses       1186628534                       # Number of data accesses
system.cpu.dcache.pwrStateResidencyTicks::UNDEFINED 1099155742500                       # Cumulative time (in ticks) in various power states
system.cpu.dcache.ReadReq_hits::cpu.data    224004516                       # number of ReadReq hits
system.cpu.dcache.ReadReq_hits::total       224004516                       # number of ReadReq hits
system.cpu.dcache.WriteReq_hits::cpu.data     69294320                       # number of WriteReq hits
system.cpu.dcache.WriteReq_hits::total       69294320                       # number of WriteReq hits
system.cpu.dcache.demand_hits::cpu.data     293298836                       # number of demand (read+write) hits
system.cpu.dcache.demand_hits::total        293298836                       # number of demand (read+write) hits
system.cpu.dcache.overall_hits::cpu.data    293298836                       # number of overall hits
system.cpu.dcache.overall_hits::total       293298836                       # number of overall hits
system.cpu.dcache.ReadReq_misses::cpu.data      1925862                       # number of ReadReq misses
system.cpu.dcache.ReadReq_misses::total       1925862                       # number of ReadReq misses
system.cpu.dcache.WriteReq_misses::cpu.data       744392                       # number of WriteReq misses
system.cpu.dcache.WriteReq_misses::total       744392                       # number of WriteReq misses
system.cpu.dcache.SoftPFReq_misses::cpu.data        16384                       # number of SoftPFReq misses
system.cpu.dcache.SoftPFReq_misses::total        16384                       # number of SoftPFReq misses
system.cpu.dcache.demand_misses::cpu.data      2670254                       # number of demand (read+write) misses
system.cpu.dcache.demand_misses::total        2670254                       # number of demand (read+write) misses
system.cpu.dcache.overall_misses::cpu.data      2686638                       # number of overall misses
system.cpu.dcache.overall_misses::total       2686638                       # number of overall misses
system.cpu.dcache.ReadReq_miss_latency::cpu.data  69003968500                       # number of ReadReq miss cycles
system.cpu.dcache.ReadReq_miss_latency::total  69003968500                       # number of ReadReq miss cycles
system.cpu.dcache.WriteReq_miss_latency::cpu.data  49274169000                       # number of WriteReq miss cycles
system.cpu.dcache.WriteReq_miss_latency::total  49274169000                       # number of WriteReq miss cycles
system.cpu.dcache.demand_miss_latency::cpu.data 118278137500                       # number of demand (read+write) miss cycles
system.cpu.dcache.demand_miss_latency::total 118278137500                       # number of demand (read+write) miss cycles
system.cpu.dcache.overall_miss_latency::cpu.data 118278137500                       # number of overall miss cycles
system.cpu.dcache.overall_miss_latency::total 118278137500                       # number of overall miss cycles
system.cpu.dcache.ReadReq_accesses::cpu.data    225930378                       # number of ReadReq accesses(hits+misses)
system.cpu.dcache.ReadReq_accesses::total    225930378                       # number of ReadReq accesses(hits+misses)
system.cpu.dcache.WriteReq_accesses::cpu.data     70038712                       # number of WriteReq accesses(hits+misses)
system.cpu.dcache.WriteReq_accesses::total     70038712                       # number of WriteReq accesses(hits+misses)
system.cpu.dcache.SoftPFReq_accesses::cpu.data        16384                       # number of SoftPFReq accesses(hits+misses)
system.cpu.dcache.SoftPFReq_accesses::total        16384                       # number of SoftPFReq accesses(hits+misses)
system.cpu.dcache.demand_accesses::cpu.data    295969090                       # number of demand (read+write) accesses
system.cpu.dcache.demand_accesses::total    295969090                       # number of demand (read+write) accesses
system.cpu.dcache.overall_accesses::cpu.data    295985474                       # number of overall (read+write) accesses
system.cpu.dcache.overall_accesses::total    295985474                       # number of overall (read+write) accesses
system.cpu.dcache.ReadReq_miss_rate::cpu.data     0.008524                       # miss rate for ReadReq accesses
system.cpu.dcache.ReadReq_miss_rate::total     0.008524                       # miss rate for ReadReq accesses
system.cpu.dcache.WriteReq_miss_rate::cpu.data     0.010628                       # miss rate for WriteReq accesses
system.cpu.dcache.WriteReq_miss_rate::total     0.010628                       # miss rate for WriteReq accesses
system.cpu.dcache.SoftPFReq_miss_rate::cpu.data            1                       # miss rate for SoftPFReq accesses
system.cpu.dcache.SoftPFReq_miss_rate::total            1                       # miss rate for SoftPFReq accesses
system.cpu.dcache.demand_miss_rate::cpu.data     0.009022                       # miss rate for demand accesses
system.cpu.dcache.demand_miss_rate::total     0.009022                       # miss rate for demand accesses
system.cpu.dcache.overall_miss_rate::cpu.data     0.009077                       # miss rate for overall accesses
system.cpu.dcache.overall_miss_rate::total     0.009077                       # miss rate for overall accesses
system.cpu.dcache.ReadReq_avg_miss_latency::cpu.data 35830.172930                       # average ReadReq miss latency
system.cpu.dcache.ReadReq_avg_miss_latency::total 35830.172930                       # average ReadReq miss latency
system.cpu.dcache.WriteReq_avg_miss_latency::cpu.data 66193.845447                       # average WriteReq miss latency
system.cpu.dcache.WriteReq_avg_miss_latency::total 66193.845447                       # average WriteReq miss latency
system.cpu.dcache.demand_avg_miss_latency::cpu.data 44294.714098                       # average overall miss latency
system.cpu.dcache.demand_avg_miss_latency::total 44294.714098                       # average overall miss latency
system.cpu.dcache.overall_avg_miss_latency::cpu.data 44024.590399                       # average overall miss latency
system.cpu.dcache.overall_avg_miss_latency::total 44024.590399                       # average overall miss latency
system.cpu.dcache.blocked_cycles::no_mshrs         3072                       # number of cycles access was blocked
system.cpu.dcache.blocked_cycles::no_targets            0                       # number of cycles access was blocked
system.cpu.dcache.blocked::no_mshrs                15                       # number of cycles access was blocked
system.cpu.dcache.blocked::no_targets               0                       # number of cycles access was blocked
system.cpu.dcache.avg_blocked_cycles::no_mshrs   204.800000                       # average number of cycles each access was blocked
system.cpu.dcache.avg_blocked_cycles::no_targets          nan                       # average number of cycles each access was blocked
system.cpu.dcache.writebacks::writebacks      1225116                       # number of writebacks
system.cpu.dcache.writebacks::total           1225116                       # number of writebacks
system.cpu.dcache.ReadReq_mshr_misses::cpu.data      1925862                       # number of ReadReq MSHR misses
system.cpu.dcache.ReadReq_mshr_misses::total      1925862                       # number of ReadReq MSHR misses
system.cpu.dcache.WriteReq_mshr_misses::cpu.data       744392                       # number of WriteReq MSHR misses
system.cpu.dcache.WriteReq_mshr_misses::total       744392                       # number of WriteReq MSHR misses
system.cpu.dcache.SoftPFReq_mshr_misses::cpu.data        16384                       # number of SoftPFReq MSHR misses
system.cpu.dcache.SoftPFReq_mshr_misses::total        16384                       # number of SoftPFReq MSHR misses
system.cpu.dcache.demand_mshr_misses::cpu.data      2670254                       # number of demand (read+write) MSHR misses
system.cpu.dcache.demand_mshr_misses::total      2670254                       # number of demand (read+write) MSHR misses
system.cpu.dcache.overall_mshr_misses::cpu.data      2686638                       # number of overall MSHR misses
system.cpu.dcache.overall_mshr_misses::total      2686638                       # number of overall MSHR misses
system.cpu.dcache.ReadReq_mshr_miss_latency::cpu.data  67078106500                       # number of ReadReq MSHR miss cycles
system.cpu.dcache.ReadReq_mshr_miss_latency::total  67078106500                       # number of ReadReq MSHR miss cycles
system.cpu.dcache.WriteReq_mshr_miss_latency::cpu.data  48529777000                       # number of WriteReq MSHR miss cycles
system.cpu.dcache.WriteReq_mshr_miss_latency::total  48529777000                       # number of WriteReq MSHR miss cycles
system.cpu.dcache.SoftPFReq_mshr_miss_latency::cpu.data   1355358000                       # number of SoftPFReq MSHR miss cycles
system.cpu.dcache.SoftPFReq_mshr_miss_latency::total   1355358000                       # number of SoftPFReq MSHR miss cycles
system.cpu.dcache.demand_mshr_miss_latency::cpu.data 115607883500                       # number of demand (read+write) MSHR miss cycles
system.cpu.dcache.demand_mshr_miss_latency::total 115607883500                       # number of demand (read+write) MSHR miss cycles
system.cpu.dcache.overall_mshr_miss_latency::cpu.data 116963241500                       # number of overall MSHR miss cycles
system.cpu.dcache.overall_mshr_miss_latency::total 116963241500                       # number of overall MSHR miss cycles
system.cpu.dcache.ReadReq_mshr_miss_rate::cpu.data     0.008524                       # mshr miss rate for ReadReq accesses
system.cpu.dcache.ReadReq_mshr_miss_rate::total     0.008524                       # mshr miss rate for ReadReq accesses
system.cpu.dcache.WriteReq_mshr_miss_rate::cpu.data     0.010628                       # mshr miss rate for WriteReq accesses
system.cpu.dcache.WriteReq_mshr_miss_rate::total     0.010628                       # mshr miss rate for WriteReq accesses
system.cpu.dcache.SoftPFReq_mshr_miss_rate::cpu.data            1                       # mshr miss rate for SoftPFReq accesses
system.cpu.dcache.SoftPFReq_mshr_miss_rate::total            1                       # mshr miss rate for SoftPFReq accesses
system.cpu.dcache.demand_mshr_miss_rate::cpu.data     0.009022                       # mshr miss rate for demand accesses
system.cpu.dcache.demand_mshr_miss_rate::total     0.009022                       # mshr miss rate for demand accesses
system.cpu.dcache.overall_mshr_miss_rate::cpu.data     0.009077                       # mshr miss rate for overall accesses
system.cpu.dcache.overall_mshr_miss_rate::total     0.009077                       # mshr miss rate for overall accesses
system.cpu.dcache.ReadReq_avg_mshr_miss_latency::cpu.data 34830.172930                       # average ReadReq mshr miss latency
system.cpu.dcache.ReadReq_avg_mshr_miss_latency::total 34830.172930                       # average ReadReq mshr miss latency
system.cpu.dcache.WriteReq_avg_mshr_miss_latency::cpu.data 65193.845447                       # average WriteReq mshr miss latency
system.cpu.dcache.WriteReq_avg_mshr_miss_latency::total 65193.845447                       # average WriteReq mshr miss latency
system.cpu.dcache.SoftPFReq_avg_mshr_miss_latency::cpu.data 82724.487305                       # average SoftPFReq mshr miss latency
system.cpu.dcache.SoftPFReq_avg_mshr_miss_latency::total 82724.487305                       # average SoftPFReq mshr miss latency
system.cpu.dcache.demand_avg_mshr_miss_latency::cpu.data 43294.714098                       # average overall mshr miss latency
system.cpu.dcache.demand_avg_mshr_miss_latency::total 43294.714098                       # average overall mshr miss latency
system.cpu.dcache.overall_avg_mshr_miss_latency::cpu.data 43535.169792                       # average overall mshr miss latency
system.cpu.dcache.overall_avg_mshr_miss_latency::total 43535.169792                       # average overall mshr miss latency
system.cpu.dtb_walker_cache.tags.pwrStateResidencyTicks::UNDEFINED 1099155742500                       # Cumulative time (in ticks) in various power states
system.cpu.dtb_walker_cache.tags.replacements            0                       # number of replacements
system.cpu.dtb_walker_cache.tags.tagsinuse            0                       # Cycle average of tags in use
system.cpu.dtb_walker_cache.tags.total_refs            0                       # Total number of references to valid blocks.
system.cpu.dtb_walker_cache.tags.sampled_refs            0                       # Sample count of references to valid blocks.
system.cpu.dtb_walker_cache.tags.avg_refs          nan                       # Average number of references to valid blocks.
system.cpu.dtb_walker_cache.tags.warmup_cycle            0                       # Cycle when the warmup percentage was hit.
system.cpu.dtb_walker_cache.tags.tag_accesses            0                       # Number of tag accesses
system.cpu.dtb_walker_cache.tags.data_accesses            0                       # Number of data accesses
system.cpu.dtb_walker_cache.pwrStateResidencyTicks::UNDEFINED 1099155742500                       # Cumulative time (in ticks) in various power states
system.cpu.dtb_walker_cache.blocked_cycles::no_mshrs            0                       # number of cycles access was blocked
system.cpu.dtb_walker_cache.blocked_cycles::no_targets            0                       # number of cycles access was blocked
system.cpu.dtb_walker_cache.blocked::no_mshrs            0                       # number of cycles access was blocked
system.cpu.dtb_walker_cache.blocked::no_targets            0                       # number of cycles access was blocked
system.cpu.dtb_walker_cache.avg_blocked_cycles::no_mshrs          nan                       # average number of cycles each access was blocked
system.cpu.dtb_walker_cache.avg_blocked_cycles::no_targets          nan                       # average number of cycles each access was blocked
system.cpu.icache.tags.pwrStateResidencyTicks::UNDEFINED 1099155742500                       # Cumulative time (in ticks) in various power states
system.cpu.icache.tags.replacements               814                       # number of replacements
system.cpu.icache.tags.tagsinuse           893.381025                       # Cycle average of tags in use
system.cpu.icache.tags.total_refs           687396031                       # Total number of references to valid blocks.
system.cpu.icache.tags.sampled_refs              1831                       # Sample count of references to valid blocks.
system.cpu.icache.tags.avg_refs          375421.098307                       # Average number of references to valid blocks.
system.cpu.icache.tags.warmup_cycle                 0                       # Cycle when the warmup percentage was hit.
system.cpu.icache.tags.occ_blocks::cpu.inst   893.381025                       # Average occupied blocks per requestor
system.cpu.icache.tags.occ_percent::cpu.inst     0.872442                       # Average percentage of cache occupancy
system.cpu.icache.tags.occ_percent::total     0.872442                       # Average percentage of cache occupancy
system.cpu.icache.tags.occ_task_id_blocks::1024         1017                       # Occupied blocks per task id
system.cpu.icache.tags.age_task_id_blocks_1024::1           14                       # Occupied blocks per task id
system.cpu.icache.tags.age_task_id_blocks_1024::3           50                       # Occupied blocks per task id
system.cpu.icache.tags.age_task_id_blocks_1024::4          953                       # Occupied blocks per task id
system.cpu.icache.tags.occ_task_id_percent::1024     0.993164                       # Percentage of cache occupancy per task id
system.cpu.icache.tags.tag_accesses        2749593279                       # Number of tag accesses
system.cpu.icache.tags.data_accesses       2749593279                       # Number of data accesses
system.cpu.icache.pwrStateResidencyTicks::UNDEFINED 1099155742500                       # Cumulative time (in ticks) in various power states
system.cpu.icache.ReadReq_hits::cpu.inst    687396031                       # number of ReadReq hits
system.cpu.icache.ReadReq_hits::total       687396031                       # number of ReadReq hits
system.cpu.icache.demand_hits::cpu.inst     687396031                       # number of demand (read+write) hits
system.cpu.icache.demand_hits::total        687396031                       # number of demand (read+write) hits
system.cpu.icache.overall_hits::cpu.inst    687396031                       # number of overall hits
system.cpu.icache.overall_hits::total       687396031                       # number of overall hits
system.cpu.icache.ReadReq_misses::cpu.inst         1831                       # number of ReadReq misses
system.cpu.icache.ReadReq_misses::total          1831                       # number of ReadReq misses
system.cpu.icache.demand_misses::cpu.inst         1831                       # number of demand (read+write) misses
system.cpu.icache.demand_misses::total           1831                       # number of demand (read+write) misses
system.cpu.icache.overall_misses::cpu.inst         1831                       # number of overall misses
system.cpu.icache.overall_misses::total          1831                       # number of overall misses
system.cpu.icache.ReadReq_miss_latency::cpu.inst    164852000                       # number of ReadReq miss cycles
system.cpu.icache.ReadReq_miss_latency::total    164852000                       # number of ReadReq miss cycles
system.cpu.icache.demand_miss_latency::cpu.inst    164852000                       # number of demand (read+write) miss cycles
system.cpu.icache.demand_miss_latency::total    164852000                       # number of demand (read+write) miss cycles
system.cpu.icache.overall_miss_latency::cpu.inst    164852000                       # number of overall miss cycles
system.cpu.icache.overall_miss_latency::total    164852000                       # number of overall miss cycles
system.cpu.icache.ReadReq_accesses::cpu.inst    687397862                       # number of ReadReq accesses(hits+misses)
system.cpu.icache.ReadReq_accesses::total    687397862                       # number of ReadReq accesses(hits+misses)
system.cpu.icache.demand_accesses::cpu.inst    687397862                       # number of demand (read+write) accesses
system.cpu.icache.demand_accesses::total    687397862                       # number of demand (read+write) accesses
system.cpu.icache.overall_accesses::cpu.inst    687397862                       # number of overall (read+write) accesses
system.cpu.icache.overall_accesses::total    687397862                       # number of overall (read+write) accesses
system.cpu.icache.ReadReq_miss_rate::cpu.inst     0.000003                       # miss rate for ReadReq accesses
system.cpu.icache.ReadReq_miss_rate::total     0.000003                       # miss rate for ReadReq accesses
system.cpu.icache.demand_miss_rate::cpu.inst     0.000003                       # miss rate for demand accesses
system.cpu.icache.demand_miss_rate::total     0.000003                       # miss rate for demand accesses
system.cpu.icache.overall_miss_rate::cpu.inst     0.000003                       # miss rate for overall accesses
system.cpu.icache.overall_miss_rate::total     0.000003                       # miss rate for overall accesses
system.cpu.icache.ReadReq_avg_miss_latency::cpu.inst 90033.861278                       # average ReadReq miss latency
system.cpu.icache.ReadReq_avg_miss_latency::total 90033.861278                       # average ReadReq miss latency
system.cpu.icache.demand_avg_miss_latency::cpu.inst 90033.861278                       # average overall miss latency
system.cpu.icache.demand_avg_miss_latency::total 90033.861278                       # average overall miss latency
system.cpu.icache.overall_avg_miss_latency::cpu.inst 90033.861278                       # average overall miss latency
system.cpu.icache.overall_avg_miss_latency::total 90033.861278                       # average overall miss latency
system.cpu.icache.blocked_cycles::no_mshrs            0                       # number of cycles access was blocked
system.cpu.icache.blocked_cycles::no_targets            0                       # number of cycles access was blocked
system.cpu.icache.blocked::no_mshrs                 0                       # number of cycles access was blocked
system.cpu.icache.blocked::no_targets               0                       # number of cycles access was blocked
system.cpu.icache.avg_blocked_cycles::no_mshrs          nan                       # average number of cycles each access was blocked
system.cpu.icache.avg_blocked_cycles::no_targets          nan                       # average number of cycles each access was blocked
system.cpu.icache.writebacks::writebacks          814                       # number of writebacks
system.cpu.icache.writebacks::total               814                       # number of writebacks
system.cpu.icache.ReadReq_mshr_misses::cpu.inst         1831                       # number of ReadReq MSHR misses
system.cpu.icache.ReadReq_mshr_misses::total         1831                       # number of ReadReq MSHR misses
system.cpu.icache.demand_mshr_misses::cpu.inst         1831                       # number of demand (read+write) MSHR misses
system.cpu.icache.demand_mshr_misses::total         1831                       # number of demand (read+write) MSHR misses
system.cpu.icache.overall_mshr_misses::cpu.inst         1831                       # number of overall MSHR misses
system.cpu.icache.overall_mshr_misses::total         1831                       # number of overall MSHR misses
system.cpu.icache.ReadReq_mshr_miss_latency::cpu.inst    163021000                       # number of ReadReq MSHR miss cycles
system.cpu.icache.ReadReq_mshr_miss_latency::total    163021000                       # number of ReadReq MSHR miss cycles
system.cpu.icache.demand_mshr_miss_latency::cpu.inst    163021000                       # number of demand (read+write) MSHR miss cycles
system.cpu.icache.demand_mshr_miss_latency::total    163021000                       # number of demand (read+write) MSHR miss cycles
system.cpu.icache.overall_mshr_miss_latency::cpu.inst    163021000                       # number of overall MSHR miss cycles
system.cpu.icache.overall_mshr_miss_latency::total    163021000                       # number of overall MSHR miss cycles
system.cpu.icache.ReadReq_mshr_miss_rate::cpu.inst     0.000003                       # mshr miss rate for ReadReq accesses
system.cpu.icache.ReadReq_mshr_miss_rate::total     0.000003                       # mshr miss rate for ReadReq accesses
system.cpu.icache.demand_mshr_miss_rate::cpu.inst     0.000003                       # mshr miss rate for demand accesses
system.cpu.icache.demand_mshr_miss_rate::total     0.000003                       # mshr miss rate for demand accesses
system.cpu.icache.overall_mshr_miss_rate::cpu.inst     0.000003                       # mshr miss rate for overall accesses
system.cpu.icache.overall_mshr_miss_rate::total     0.000003                       # mshr miss rate for overall accesses
system.cpu.icache.ReadReq_avg_mshr_miss_latency::cpu.inst 89033.861278                       # average ReadReq mshr miss latency
system.cpu.icache.ReadReq_avg_mshr_miss_latency::total 89033.861278                       # average ReadReq mshr miss latency
system.cpu.icache.demand_avg_mshr_miss_latency::cpu.inst 89033.861278                       # average overall mshr miss latency
system.cpu.icache.demand_avg_mshr_miss_latency::total 89033.861278                       # average overall mshr miss latency
system.cpu.icache.overall_avg_mshr_miss_latency::cpu.inst 89033.861278                       # average overall mshr miss latency
system.cpu.icache.overall_avg_mshr_miss_latency::total 89033.861278                       # average overall mshr miss latency
system.cpu.itb_walker_cache.tags.pwrStateResidencyTicks::UNDEFINED 1099155742500                       # Cumulative time (in ticks) in various power states
system.cpu.itb_walker_cache.tags.replacements            0                       # number of replacements
system.cpu.itb_walker_cache.tags.tagsinuse            0                       # Cycle average of tags in use
system.cpu.itb_walker_cache.tags.total_refs            0                       # Total number of references to valid blocks.
system.cpu.itb_walker_cache.tags.sampled_refs            0                       # Sample count of references to valid blocks.
system.cpu.itb_walker_cache.tags.avg_refs          nan                       # Average number of references to valid blocks.
system.cpu.itb_walker_cache.tags.warmup_cycle            0                       # Cycle when the warmup percentage was hit.
system.cpu.itb_walker_cache.tags.tag_accesses            0                       # Number of tag accesses
system.cpu.itb_walker_cache.tags.data_accesses            0                       # Number of data accesses
system.cpu.itb_walker_cache.pwrStateResidencyTicks::UNDEFINED 1099155742500                       # Cumulative time (in ticks) in various power states
system.cpu.itb_walker_cache.blocked_cycles::no_mshrs            0                       # number of cycles access was blocked
system.cpu.itb_walker_cache.blocked_cycles::no_targets            0                       # number of cycles access was blocked
system.cpu.itb_walker_cache.blocked::no_mshrs            0                       # number of cycles access was blocked
system.cpu.itb_walker_cache.blocked::no_targets            0                       # number of cycles access was blocked
system.cpu.itb_walker_cache.avg_blocked_cycles::no_mshrs          nan                       # average number of cycles each access was blocked
system.cpu.itb_walker_cache.avg_blocked_cycles::no_targets          nan                       # average number of cycles each access was blocked
system.l2.tags.pwrStateResidencyTicks::UNDEFINED 1099155742500                       # Cumulative time (in ticks) in various power states
system.l2.tags.replacements                    964414                       # number of replacements
system.l2.tags.tagsinuse                 32638.056006                       # Cycle average of tags in use
system.l2.tags.total_refs                     4371236                       # Total number of references to valid blocks.
system.l2.tags.sampled_refs                    997182                       # Sample count of references to valid blocks.
system.l2.tags.avg_refs                      4.383589                       # Average number of references to valid blocks.
system.l2.tags.warmup_cycle                5514340000                       # Cycle when the warmup percentage was hit.
system.l2.tags.occ_blocks::writebacks      185.966178                       # Average occupied blocks per requestor
system.l2.tags.occ_blocks::cpu.inst         34.265043                       # Average occupied blocks per requestor
system.l2.tags.occ_blocks::cpu.data      32417.824785                       # Average occupied blocks per requestor
system.l2.tags.occ_percent::writebacks       0.005675                       # Average percentage of cache occupancy
system.l2.tags.occ_percent::cpu.inst         0.001046                       # Average percentage of cache occupancy
system.l2.tags.occ_percent::cpu.data         0.989314                       # Average percentage of cache occupancy
system.l2.tags.occ_percent::total            0.996034                       # Average percentage of cache occupancy
system.l2.tags.occ_task_id_blocks::1024         32768                       # Occupied blocks per task id
system.l2.tags.age_task_id_blocks_1024::0            1                       # Occupied blocks per task id
system.l2.tags.age_task_id_blocks_1024::1           31                       # Occupied blocks per task id
system.l2.tags.age_task_id_blocks_1024::2           32                       # Occupied blocks per task id
system.l2.tags.age_task_id_blocks_1024::3          499                       # Occupied blocks per task id
system.l2.tags.age_task_id_blocks_1024::4        32205                       # Occupied blocks per task id
system.l2.tags.occ_task_id_percent::1024            1                       # Percentage of cache occupancy per task id
system.l2.tags.tag_accesses                  11744926                       # Number of tag accesses
system.l2.tags.data_accesses                 11744926                       # Number of data accesses
system.l2.pwrStateResidencyTicks::UNDEFINED 1099155742500                       # Cumulative time (in ticks) in various power states
system.l2.WritebackDirty_hits::writebacks      1225116                       # number of WritebackDirty hits
system.l2.WritebackDirty_hits::total          1225116                       # number of WritebackDirty hits
system.l2.WritebackClean_hits::writebacks          814                       # number of WritebackClean hits
system.l2.WritebackClean_hits::total              814                       # number of WritebackClean hits
system.l2.ReadExReq_hits::cpu.data             268493                       # number of ReadExReq hits
system.l2.ReadExReq_hits::total                268493                       # number of ReadExReq hits
system.l2.ReadCleanReq_hits::cpu.inst              19                       # number of ReadCleanReq hits
system.l2.ReadCleanReq_hits::total                 19                       # number of ReadCleanReq hits
system.l2.ReadSharedReq_hits::cpu.data        1429402                       # number of ReadSharedReq hits
system.l2.ReadSharedReq_hits::total           1429402                       # number of ReadSharedReq hits
system.l2.demand_hits::cpu.inst                    19                       # number of demand (read+write) hits
system.l2.demand_hits::cpu.data               1697895                       # number of demand (read+write) hits
system.l2.demand_hits::total                  1697914                       # number of demand (read+write) hits
system.l2.overall_hits::cpu.inst                   19                       # number of overall hits
system.l2.overall_hits::cpu.data              1697895                       # number of overall hits
system.l2.overall_hits::total                 1697914                       # number of overall hits
system.l2.ReadExReq_misses::cpu.data           475899                       # number of ReadExReq misses
system.l2.ReadExReq_misses::total              475899                       # number of ReadExReq misses
system.l2.ReadCleanReq_misses::cpu.inst          1812                       # number of ReadCleanReq misses
system.l2.ReadCleanReq_misses::total             1812                       # number of ReadCleanReq misses
system.l2.ReadSharedReq_misses::cpu.data       512844                       # number of ReadSharedReq misses
system.l2.ReadSharedReq_misses::total          512844                       # number of ReadSharedReq misses
system.l2.demand_misses::cpu.inst                1812                       # number of demand (read+write) misses
system.l2.demand_misses::cpu.data              988743                       # number of demand (read+write) misses
system.l2.demand_misses::total                 990555                       # number of demand (read+write) misses
system.l2.overall_misses::cpu.inst               1812                       # number of overall misses
system.l2.overall_misses::cpu.data             988743                       # number of overall misses
system.l2.overall_misses::total                990555                       # number of overall misses
system.l2.ReadExReq_miss_latency::cpu.data  44594012500                       # number of ReadExReq miss cycles
system.l2.ReadExReq_miss_latency::total   44594012500                       # number of ReadExReq miss cycles
system.l2.ReadCleanReq_miss_latency::cpu.inst    160074000                       # number of ReadCleanReq miss cycles
system.l2.ReadCleanReq_miss_latency::total    160074000                       # number of ReadCleanReq miss cycles
system.l2.ReadSharedReq_miss_latency::cpu.data  50511374500                       # number of ReadSharedReq miss cycles
system.l2.ReadSharedReq_miss_latency::total  50511374500                       # number of ReadSharedReq miss cycles
system.l2.demand_miss_latency::cpu.inst     160074000                       # number of demand (read+write) miss cycles
system.l2.demand_miss_latency::cpu.data   95105387000                       # number of demand (read+write) miss cycles
system.l2.demand_miss_latency::total      95265461000                       # number of demand (read+write) miss cycles
system.l2.overall_miss_latency::cpu.inst    160074000                       # number of overall miss cycles
system.l2.overall_miss_latency::cpu.data  95105387000                       # number of overall miss cycles
system.l2.overall_miss_latency::total     95265461000                       # number of overall miss cycles
system.l2.WritebackDirty_accesses::writebacks      1225116                       # number of WritebackDirty accesses(hits+misses)
system.l2.WritebackDirty_accesses::total      1225116                       # number of WritebackDirty accesses(hits+misses)
system.l2.WritebackClean_accesses::writebacks          814                       # number of WritebackClean accesses(hits+misses)
system.l2.WritebackClean_accesses::total          814                       # number of WritebackClean accesses(hits+misses)
system.l2.ReadExReq_accesses::cpu.data         744392                       # number of ReadExReq accesses(hits+misses)
system.l2.ReadExReq_accesses::total            744392                       # number of ReadExReq accesses(hits+misses)
system.l2.ReadCleanReq_accesses::cpu.inst         1831                       # number of ReadCleanReq accesses(hits+misses)
system.l2.ReadCleanReq_accesses::total           1831                       # number of ReadCleanReq accesses(hits+misses)
system.l2.ReadSharedReq_accesses::cpu.data      1942246                       # number of ReadSharedReq accesses(hits+misses)
system.l2.ReadSharedReq_accesses::total       1942246                       # number of ReadSharedReq accesses(hits+misses)
system.l2.demand_accesses::cpu.inst              1831                       # number of demand (read+write) accesses
system.l2.demand_accesses::cpu.data           2686638                       # number of demand (read+write) accesses
system.l2.demand_accesses::total              2688469                       # number of demand (read+write) accesses
system.l2.overall_accesses::cpu.inst             1831                       # number of overall (read+write) accesses
system.l2.overall_accesses::cpu.data          2686638                       # number of overall (read+write) accesses
system.l2.overall_accesses::total             2688469                       # number of overall (read+write) accesses
system.l2.ReadExReq_miss_rate::cpu.data      0.639312                       # miss rate for ReadExReq accesses
system.l2.ReadExReq_miss_rate::total         0.639312                       # miss rate for ReadExReq accesses
system.l2.ReadCleanReq_miss_rate::cpu.inst     0.989623                       # miss rate for ReadCleanReq accesses
system.l2.ReadCleanReq_miss_rate::total      0.989623                       # miss rate for ReadCleanReq accesses
system.l2.ReadSharedReq_miss_rate::cpu.data     0.264047                       # miss rate for ReadSharedReq accesses
system.l2.ReadSharedReq_miss_rate::total     0.264047                       # miss rate for ReadSharedReq accesses
system.l2.demand_miss_rate::cpu.inst         0.989623                       # miss rate for demand accesses
system.l2.demand_miss_rate::cpu.data         0.368022                       # miss rate for demand accesses
system.l2.demand_miss_rate::total            0.368446                       # miss rate for demand accesses
system.l2.overall_miss_rate::cpu.inst        0.989623                       # miss rate for overall accesses
system.l2.overall_miss_rate::cpu.data        0.368022                       # miss rate for overall accesses
system.l2.overall_miss_rate::total           0.368446                       # miss rate for overall accesses
system.l2.ReadExReq_avg_miss_latency::cpu.data 93704.782948                       # average ReadExReq miss latency
system.l2.ReadExReq_avg_miss_latency::total 93704.782948                       # average ReadExReq miss latency
system.l2.ReadCleanReq_avg_miss_latency::cpu.inst 88341.059603                       # average ReadCleanReq miss latency
system.l2.ReadCleanReq_avg_miss_latency::total 88341.059603                       # average ReadCleanReq miss latency
system.l2.ReadSharedReq_avg_miss_latency::cpu.data 98492.669311                       # average ReadSharedReq miss latency
system.l2.ReadSharedReq_avg_miss_latency::total 98492.669311                       # average ReadSharedReq miss latency
system.l2.demand_avg_miss_latency::cpu.inst 88341.059603                       # average overall miss latency
system.l2.demand_avg_miss_latency::cpu.data 96188.177312                       # average overall miss latency
system.l2.demand_avg_miss_latency::total 96173.822756                       # average overall miss latency
system.l2.overall_avg_miss_latency::cpu.inst 88341.059603                       # average overall miss latency
system.l2.overall_avg_miss_latency::cpu.data 96188.177312                       # average overall miss latency
system.l2.overall_avg_miss_latency::total 96173.822756                       # average overall miss latency
system.l2.blocked_cycles::no_mshrs                  0                       # number of cycles access was blocked
system.l2.blocked_cycles::no_targets                0                       # number of cycles access was blocked
system.l2.blocked::no_mshrs                         0                       # number of cycles access was blocked
system.l2.blocked::no_targets                       0                       # number of cycles access was blocked
system.l2.avg_blocked_cycles::no_mshrs            nan                       # average number of cycles each access was blocked
system.l2.avg_blocked_cycles::no_targets          nan                       # average number of cycles each access was blocked
system.l2.writebacks::writebacks               564641                       # number of writebacks
system.l2.writebacks::total                    564641                       # number of writebacks
system.l2.CleanEvict_mshr_misses::writebacks         5454                       # number of CleanEvict MSHR misses
system.l2.CleanEvict_mshr_misses::total          5454                       # number of CleanEvict MSHR misses
system.l2.ReadExReq_mshr_misses::cpu.data       475899                       # number of ReadExReq MSHR misses
system.l2.ReadExReq_mshr_misses::total         475899                       # number of ReadExReq MSHR misses
system.l2.ReadCleanReq_mshr_misses::cpu.inst         1812                       # number of ReadCleanReq MSHR misses
system.l2.ReadCleanReq_mshr_misses::total         1812                       # number of ReadCleanReq MSHR misses
system.l2.ReadSharedReq_mshr_misses::cpu.data       512844                       # number of ReadSharedReq MSHR misses
system.l2.ReadSharedReq_mshr_misses::total       512844                       # number of ReadSharedReq MSHR misses
system.l2.demand_mshr_misses::cpu.inst           1812                       # number of demand (read+write) MSHR misses
system.l2.demand_mshr_misses::cpu.data         988743                       # number of demand (read+write) MSHR misses
system.l2.demand_mshr_misses::total            990555                       # number of demand (read+write) MSHR misses
system.l2.overall_mshr_misses::cpu.inst          1812                       # number of overall MSHR misses
system.l2.overall_mshr_misses::cpu.data        988743                       # number of overall MSHR misses
system.l2.overall_mshr_misses::total           990555                       # number of overall MSHR misses
system.l2.ReadExReq_mshr_miss_latency::cpu.data  39835022500                       # number of ReadExReq MSHR miss cycles
system.l2.ReadExReq_mshr_miss_latency::total  39835022500                       # number of ReadExReq MSHR miss cycles
system.l2.ReadCleanReq_mshr_miss_latency::cpu.inst    141954000                       # number of ReadCleanReq MSHR miss cycles
system.l2.ReadCleanReq_mshr_miss_latency::total    141954000                       # number of ReadCleanReq MSHR miss cycles
system.l2.ReadSharedReq_mshr_miss_latency::cpu.data  45382934500                       # number of ReadSharedReq MSHR miss cycles
system.l2.ReadSharedReq_mshr_miss_latency::total  45382934500                       # number of ReadSharedReq MSHR miss cycles
system.l2.demand_mshr_miss_latency::cpu.inst    141954000                       # number of demand (read+write) MSHR miss cycles
system.l2.demand_mshr_miss_latency::cpu.data  85217957000                       # number of demand (read+write) MSHR miss cycles
system.l2.demand_mshr_miss_latency::total  85359911000                       # number of demand (read+write) MSHR miss cycles
system.l2.overall_mshr_miss_latency::cpu.inst    141954000                       # number of overall MSHR miss cycles
system.l2.overall_mshr_miss_latency::cpu.data  85217957000                       # number of overall MSHR miss cycles
system.l2.overall_mshr_miss_latency::total  85359911000                       # number of overall MSHR miss cycles
system.l2.CleanEvict_mshr_miss_rate::writebacks          inf                       # mshr miss rate for CleanEvict accesses
system.l2.CleanEvict_mshr_miss_rate::total          inf                       # mshr miss rate for CleanEvict accesses
system.l2.ReadExReq_mshr_miss_rate::cpu.data     0.639312                       # mshr miss rate for ReadExReq accesses
system.l2.ReadExReq_mshr_miss_rate::total     0.639312                       # mshr miss rate for ReadExReq accesses
system.l2.ReadCleanReq_mshr_miss_rate::cpu.inst     0.989623                       # mshr miss rate for ReadCleanReq accesses
system.l2.ReadCleanReq_mshr_miss_rate::total     0.989623                       # mshr miss rate for ReadCleanReq accesses
system.l2.ReadSharedReq_mshr_miss_rate::cpu.data     0.264047                       # mshr miss rate for ReadSharedReq accesses
system.l2.ReadSharedReq_mshr_miss_rate::total     0.264047                       # mshr miss rate for ReadSharedReq accesses
system.l2.demand_mshr_miss_rate::cpu.inst     0.989623                       # mshr miss rate for demand accesses
system.l2.demand_mshr_miss_rate::cpu.data     0.368022                       # mshr miss rate for demand accesses
system.l2.demand_mshr_miss_rate::total       0.368446                       # mshr miss rate for demand accesses
system.l2.overall_mshr_miss_rate::cpu.inst     0.989623                       # mshr miss rate for overall accesses
system.l2.overall_mshr_miss_rate::cpu.data     0.368022                       # mshr miss rate for overall accesses
system.l2.overall_mshr_miss_rate::total      0.368446                       # mshr miss rate for overall accesses
system.l2.ReadExReq_avg_mshr_miss_latency::cpu.data 83704.782948                       # average ReadExReq mshr miss latency
system.l2.ReadExReq_avg_mshr_miss_latency::total 83704.782948                       # average ReadExReq mshr miss latency
system.l2.ReadCleanReq_avg_mshr_miss_latency::cpu.inst 78341.059603                       # average ReadCleanReq mshr miss latency
system.l2.ReadCleanReq_avg_mshr_miss_latency::total 78341.059603                       # average ReadCleanReq mshr miss latency
system.l2.ReadSharedReq_avg_mshr_miss_latency::cpu.data 88492.669311                       # average ReadSharedReq mshr miss latency
system.l2.ReadSharedReq_avg_mshr_miss_latency::total 88492.669311                       # average ReadSharedReq mshr miss latency
system.l2.demand_avg_mshr_miss_latency::cpu.inst 78341.059603                       # average overall mshr miss latency
system.l2.demand_avg_mshr_miss_latency::cpu.data 86188.177312                       # average overall mshr miss latency
system.l2.demand_avg_mshr_miss_latency::total 86173.822756                       # average overall mshr miss latency
system.l2.overall_avg_mshr_miss_latency::cpu.inst 78341.059603                       # average overall mshr miss latency
system.l2.overall_avg_mshr_miss_latency::cpu.data 86188.177312                       # average overall mshr miss latency
system.l2.overall_avg_mshr_miss_latency::total 86173.822756                       # average overall mshr miss latency
system.membus.snoop_filter.tot_requests       1947386                       # Total number of requests made to the snoop filter.
system.membus.snoop_filter.hit_single_requests       956831                       # Number of requests hitting in the snoop filter with a single holder of the requested data.
system.membus.snoop_filter.hit_multi_requests            0                       # Number of requests hitting in the snoop filter with multiple (>1) holders of the requested data.
system.membus.snoop_filter.tot_snoops               0                       # Total number of snoops made to the snoop filter.
system.membus.snoop_filter.hit_single_snoops            0                       # Number of snoops hitting in the snoop filter with a single holder of the requested data.
system.membus.snoop_filter.hit_multi_snoops            0                       # Number of snoops hitting in the snoop filter with multiple (>1) holders of the requested data.
system.membus.pwrStateResidencyTicks::UNDEFINED 1099155742500                       # Cumulative time (in ticks) in various power states
system.membus.trans_dist::ReadResp             514656                       # Transaction distribution
system.membus.trans_dist::WritebackDirty       564641                       # Transaction distribution
system.membus.trans_dist::CleanEvict           392190                       # Transaction distribution
system.membus.trans_dist::ReadExReq            475899                       # Transaction distribution
system.membus.trans_dist::ReadExResp           475899                       # Transaction distribution
system.membus.trans_dist::ReadSharedReq        514656                       # Transaction distribution
system.membus.pkt_count_system.l2.mem_side::system.mem_ctrls.port      2937941                       # Packet count per connected master and slave (bytes)
system.membus.pkt_count_system.l2.mem_side::total      2937941                       # Packet count per connected master and slave (bytes)
system.membus.pkt_count::total                2937941                       # Packet count per connected master and slave (bytes)
system.membus.pkt_size_system.l2.mem_side::system.mem_ctrls.port     49766272                       # Cumulative packet size per connected master and slave (bytes)
system.membus.pkt_size_system.l2.mem_side::total     49766272                       # Cumulative packet size per connected master and slave (bytes)
system.membus.pkt_size::total                49766272                       # Cumulative packet size per connected master and slave (bytes)
system.membus.snoops                                0                       # Total snoops (count)
system.membus.snoopTraffic                          0                       # Total snoop traffic (bytes)
system.membus.snoop_fanout::samples            990555                       # Request fanout histogram
system.membus.snoop_fanout::mean                    0                       # Request fanout histogram
system.membus.snoop_fanout::stdev                   0                       # Request fanout histogram
system.membus.snoop_fanout::underflows              0      0.00%      0.00% # Request fanout histogram
system.membus.snoop_fanout::0                  990555    100.00%    100.00% # Request fanout histogram
system.membus.snoop_fanout::1                       0      0.00%    100.00% # Request fanout histogram
system.membus.snoop_fanout::overflows               0      0.00%    100.00% # Request fanout histogram
system.membus.snoop_fanout::min_value               0                       # Request fanout histogram
system.membus.snoop_fanout::max_value               0                       # Request fanout histogram
system.membus.snoop_fanout::total              990555                       # Request fanout histogram
system.membus.reqLayer2.occupancy          3076679000                       # Layer occupancy (ticks)
system.membus.reqLayer2.utilization               0.3                       # Layer utilization (%)
system.membus.respLayer1.occupancy         3365475500                       # Layer occupancy (ticks)
system.membus.respLayer1.utilization              0.3                       # Layer utilization (%)
system.tol2bus.snoop_filter.tot_requests      5373873                       # Total number of requests made to the snoop filter.
system.tol2bus.snoop_filter.hit_single_requests      2685404                       # Number of requests hitting in the snoop filter with a single holder of the requested data.
system.tol2bus.snoop_filter.hit_multi_requests            1                       # Number of requests hitting in the snoop filter with multiple (>1) holders of the requested data.
system.tol2bus.snoop_filter.tot_snoops          13037                       # Total number of snoops made to the snoop filter.
system.tol2bus.snoop_filter.hit_single_snoops        13037                       # Number of snoops hitting in the snoop filter with a single holder of the requested data.
system.tol2bus.snoop_filter.hit_multi_snoops            0                       # Number of snoops hitting in the snoop filter with multiple (>1) holders of the requested data.
system.tol2bus.pwrStateResidencyTicks::UNDEFINED 1099155742500                       # Cumulative time (in ticks) in various power states
system.tol2bus.trans_dist::ReadResp           1944077                       # Transaction distribution
system.tol2bus.trans_dist::WritebackDirty      1789757                       # Transaction distribution
system.tol2bus.trans_dist::WritebackClean          814                       # Transaction distribution
system.tol2bus.trans_dist::CleanEvict         1859247                       # Transaction distribution
system.tol2bus.trans_dist::ReadExReq           744392                       # Transaction distribution
system.tol2bus.trans_dist::ReadExResp          744392                       # Transaction distribution
system.tol2bus.trans_dist::ReadCleanReq          1831                       # Transaction distribution
system.tol2bus.trans_dist::ReadSharedReq      1942246                       # Transaction distribution
system.tol2bus.pkt_count_system.cpu.icache.mem_side::system.l2.cpu_side         4476                       # Packet count per connected master and slave (bytes)
system.tol2bus.pkt_count_system.cpu.dcache.mem_side::system.l2.cpu_side      8057866                       # Packet count per connected master and slave (bytes)
system.tol2bus.pkt_count::total               8062342                       # Packet count per connected master and slave (bytes)
system.tol2bus.pkt_size_system.cpu.icache.mem_side::system.l2.cpu_side        84640                       # Cumulative packet size per connected master and slave (bytes)
system.tol2bus.pkt_size_system.cpu.dcache.mem_side::system.l2.cpu_side    125176128                       # Cumulative packet size per connected master and slave (bytes)
system.tol2bus.pkt_size::total              125260768                       # Cumulative packet size per connected master and slave (bytes)
system.tol2bus.snoops                          964414                       # Total snoops (count)
system.tol2bus.snoopTraffic                  18068512                       # Total snoop traffic (bytes)
system.tol2bus.snoop_fanout::samples          3652883                       # Request fanout histogram
system.tol2bus.snoop_fanout::mean            0.003569                       # Request fanout histogram
system.tol2bus.snoop_fanout::stdev           0.059636                       # Request fanout histogram
system.tol2bus.snoop_fanout::underflows             0      0.00%      0.00% # Request fanout histogram
system.tol2bus.snoop_fanout::0                3639845     99.64%     99.64% # Request fanout histogram
system.tol2bus.snoop_fanout::1                  13038      0.36%    100.00% # Request fanout histogram
system.tol2bus.snoop_fanout::2                      0      0.00%    100.00% # Request fanout histogram
system.tol2bus.snoop_fanout::3                      0      0.00%    100.00% # Request fanout histogram
system.tol2bus.snoop_fanout::4                      0      0.00%    100.00% # Request fanout histogram
system.tol2bus.snoop_fanout::overflows              0      0.00%    100.00% # Request fanout histogram
system.tol2bus.snoop_fanout::min_value              0                       # Request fanout histogram
system.tol2bus.snoop_fanout::max_value              1                       # Request fanout histogram
system.tol2bus.snoop_fanout::total            3652883                       # Request fanout histogram
system.tol2bus.reqLayer0.occupancy         3299901500                       # Layer occupancy (ticks)
system.tol2bus.reqLayer0.utilization              0.3                       # Layer utilization (%)
system.tol2bus.respLayer0.occupancy           1831000                       # Layer occupancy (ticks)
system.tol2bus.respLayer0.utilization             0.0                       # Layer utilization (%)
system.tol2bus.respLayer1.occupancy        2686638000                       # Layer occupancy (ticks)
system.tol2bus.respLayer1.utilization             0.2                       # Layer utilization (%)

---------- End Simulation Statistics   ----------
