
---------- Begin Simulation Statistics ----------
sim_seconds                                  0.952382                       # Number of seconds simulated
sim_ticks                                952381570500                       # Number of ticks simulated
final_tick                               952381570500                       # Number of ticks from beginning of simulation (restored from checkpoints and never reset)
sim_freq                                 1000000000000                       # Frequency of simulated ticks
host_inst_rate                                 620946                       # Simulator instruction rate (inst/s)
host_op_rate                                   800749                       # Simulator op (including micro ops) rate (op/s)
host_tick_rate                             1182755705                       # Simulator tick rate (ticks/s)
host_mem_usage                                 666220                       # Number of bytes of host memory used
host_seconds                                   805.22                       # Real time elapsed on the host
sim_insts                                   500000000                       # Number of instructions simulated
sim_ops                                     644780824                       # Number of ops (including micro ops) simulated
system.voltage_domain.voltage                       1                       # Voltage in Volts
system.clk_domain.clock                          1000                       # Clock period in ticks
system.mem_ctrls.pwrStateResidencyTicks::UNDEFINED 952381570500                       # Cumulative time (in ticks) in various power states
system.mem_ctrls.bytes_read::cpu.inst           88768                       # Number of bytes read from this memory
system.mem_ctrls.bytes_read::cpu.data          301056                       # Number of bytes read from this memory
system.mem_ctrls.bytes_read::total             389824                       # Number of bytes read from this memory
system.mem_ctrls.bytes_inst_read::cpu.inst        88768                       # Number of instructions bytes read from this memory
system.mem_ctrls.bytes_inst_read::total         88768                       # Number of instructions bytes read from this memory
system.mem_ctrls.bytes_written::writebacks          832                       # Number of bytes written to this memory
system.mem_ctrls.bytes_written::total             832                       # Number of bytes written to this memory
system.mem_ctrls.num_reads::cpu.inst             1387                       # Number of read requests responded to by this memory
system.mem_ctrls.num_reads::cpu.data             4704                       # Number of read requests responded to by this memory
system.mem_ctrls.num_reads::total                6091                       # Number of read requests responded to by this memory
system.mem_ctrls.num_writes::writebacks            13                       # Number of write requests responded to by this memory
system.mem_ctrls.num_writes::total                 13                       # Number of write requests responded to by this memory
system.mem_ctrls.bw_read::cpu.inst              93206                       # Total read bandwidth from this memory (bytes/s)
system.mem_ctrls.bw_read::cpu.data             316109                       # Total read bandwidth from this memory (bytes/s)
system.mem_ctrls.bw_read::total                409315                       # Total read bandwidth from this memory (bytes/s)
system.mem_ctrls.bw_inst_read::cpu.inst         93206                       # Instruction read bandwidth from this memory (bytes/s)
system.mem_ctrls.bw_inst_read::total            93206                       # Instruction read bandwidth from this memory (bytes/s)
system.mem_ctrls.bw_write::writebacks             874                       # Write bandwidth from this memory (bytes/s)
system.mem_ctrls.bw_write::total                  874                       # Write bandwidth from this memory (bytes/s)
system.mem_ctrls.bw_total::writebacks             874                       # Total bandwidth to/from this memory (bytes/s)
system.mem_ctrls.bw_total::cpu.inst             93206                       # Total bandwidth to/from this memory (bytes/s)
system.mem_ctrls.bw_total::cpu.data            316109                       # Total bandwidth to/from this memory (bytes/s)
system.mem_ctrls.bw_total::total               410189                       # Total bandwidth to/from this memory (bytes/s)
system.mem_ctrls.readReqs                        6091                       # Number of read requests accepted
system.mem_ctrls.writeReqs                         13                       # Number of write requests accepted
system.mem_ctrls.readBursts                      6091                       # Number of DRAM read bursts, including those serviced by the write queue
system.mem_ctrls.writeBursts                       13                       # Number of DRAM write bursts, including those merged in the write queue
system.mem_ctrls.bytesReadDRAM                 389696                       # Total number of bytes read from DRAM
system.mem_ctrls.bytesReadWrQ                     128                       # Total number of bytes read from write queue
system.mem_ctrls.bytesWritten                       0                       # Total number of bytes written to DRAM
system.mem_ctrls.bytesReadSys                  389824                       # Total read bytes from the system interface side
system.mem_ctrls.bytesWrittenSys                  832                       # Total written bytes from the system interface side
system.mem_ctrls.servicedByWrQ                      2                       # Number of DRAM read bursts serviced by the write queue
system.mem_ctrls.mergedWrBursts                     0                       # Number of DRAM write bursts merged with an existing one
system.mem_ctrls.neitherReadNorWriteReqs            0                       # Number of requests that are neither read nor write
system.mem_ctrls.perBankRdBursts::0               315                       # Per bank write bursts
system.mem_ctrls.perBankRdBursts::1               346                       # Per bank write bursts
system.mem_ctrls.perBankRdBursts::2               421                       # Per bank write bursts
system.mem_ctrls.perBankRdBursts::3               318                       # Per bank write bursts
system.mem_ctrls.perBankRdBursts::4               477                       # Per bank write bursts
system.mem_ctrls.perBankRdBursts::5               405                       # Per bank write bursts
system.mem_ctrls.perBankRdBursts::6               341                       # Per bank write bursts
system.mem_ctrls.perBankRdBursts::7               416                       # Per bank write bursts
system.mem_ctrls.perBankRdBursts::8               414                       # Per bank write bursts
system.mem_ctrls.perBankRdBursts::9               392                       # Per bank write bursts
system.mem_ctrls.perBankRdBursts::10              445                       # Per bank write bursts
system.mem_ctrls.perBankRdBursts::11              474                       # Per bank write bursts
system.mem_ctrls.perBankRdBursts::12              371                       # Per bank write bursts
system.mem_ctrls.perBankRdBursts::13              320                       # Per bank write bursts
system.mem_ctrls.perBankRdBursts::14              309                       # Per bank write bursts
system.mem_ctrls.perBankRdBursts::15              325                       # Per bank write bursts
system.mem_ctrls.perBankWrBursts::0                 0                       # Per bank write bursts
system.mem_ctrls.perBankWrBursts::1                 0                       # Per bank write bursts
system.mem_ctrls.perBankWrBursts::2                 0                       # Per bank write bursts
system.mem_ctrls.perBankWrBursts::3                 0                       # Per bank write bursts
system.mem_ctrls.perBankWrBursts::4                 0                       # Per bank write bursts
system.mem_ctrls.perBankWrBursts::5                 0                       # Per bank write bursts
system.mem_ctrls.perBankWrBursts::6                 0                       # Per bank write bursts
system.mem_ctrls.perBankWrBursts::7                 0                       # Per bank write bursts
system.mem_ctrls.perBankWrBursts::8                 0                       # Per bank write bursts
system.mem_ctrls.perBankWrBursts::9                 0                       # Per bank write bursts
system.mem_ctrls.perBankWrBursts::10                0                       # Per bank write bursts
system.mem_ctrls.perBankWrBursts::11                0                       # Per bank write bursts
system.mem_ctrls.perBankWrBursts::12                0                       # Per bank write bursts
system.mem_ctrls.perBankWrBursts::13                0                       # Per bank write bursts
system.mem_ctrls.perBankWrBursts::14                0                       # Per bank write bursts
system.mem_ctrls.perBankWrBursts::15                0                       # Per bank write bursts
system.mem_ctrls.numRdRetry                         0                       # Number of times read queue was full causing retry
system.mem_ctrls.numWrRetry                         0                       # Number of times write queue was full causing retry
system.mem_ctrls.totGap                  518219049500                       # Total gap between requests
system.mem_ctrls.readPktSize::0                     0                       # Read request sizes (log2)
system.mem_ctrls.readPktSize::1                     0                       # Read request sizes (log2)
system.mem_ctrls.readPktSize::2                     0                       # Read request sizes (log2)
system.mem_ctrls.readPktSize::3                     0                       # Read request sizes (log2)
system.mem_ctrls.readPktSize::4                     0                       # Read request sizes (log2)
system.mem_ctrls.readPktSize::5                     0                       # Read request sizes (log2)
system.mem_ctrls.readPktSize::6                  6091                       # Read request sizes (log2)
system.mem_ctrls.writePktSize::0                    0                       # Write request sizes (log2)
system.mem_ctrls.writePktSize::1                    0                       # Write request sizes (log2)
system.mem_ctrls.writePktSize::2                    0                       # Write request sizes (log2)
system.mem_ctrls.writePktSize::3                    0                       # Write request sizes (log2)
system.mem_ctrls.writePktSize::4                    0                       # Write request sizes (log2)
system.mem_ctrls.writePktSize::5                    0                       # Write request sizes (log2)
system.mem_ctrls.writePktSize::6                   13                       # Write request sizes (log2)
system.mem_ctrls.rdQLenPdf::0                    5828                       # What read queue length does an incoming req see
system.mem_ctrls.rdQLenPdf::1                     239                       # What read queue length does an incoming req see
system.mem_ctrls.rdQLenPdf::2                      17                       # What read queue length does an incoming req see
system.mem_ctrls.rdQLenPdf::3                       5                       # What read queue length does an incoming req see
system.mem_ctrls.rdQLenPdf::4                       0                       # What read queue length does an incoming req see
system.mem_ctrls.rdQLenPdf::5                       0                       # What read queue length does an incoming req see
system.mem_ctrls.rdQLenPdf::6                       0                       # What read queue length does an incoming req see
system.mem_ctrls.rdQLenPdf::7                       0                       # What read queue length does an incoming req see
system.mem_ctrls.rdQLenPdf::8                       0                       # What read queue length does an incoming req see
system.mem_ctrls.rdQLenPdf::9                       0                       # What read queue length does an incoming req see
system.mem_ctrls.rdQLenPdf::10                      0                       # What read queue length does an incoming req see
system.mem_ctrls.rdQLenPdf::11                      0                       # What read queue length does an incoming req see
system.mem_ctrls.rdQLenPdf::12                      0                       # What read queue length does an incoming req see
system.mem_ctrls.rdQLenPdf::13                      0                       # What read queue length does an incoming req see
system.mem_ctrls.rdQLenPdf::14                      0                       # What read queue length does an incoming req see
system.mem_ctrls.rdQLenPdf::15                      0                       # What read queue length does an incoming req see
system.mem_ctrls.rdQLenPdf::16                      0                       # What read queue length does an incoming req see
system.mem_ctrls.rdQLenPdf::17                      0                       # What read queue length does an incoming req see
system.mem_ctrls.rdQLenPdf::18                      0                       # What read queue length does an incoming req see
system.mem_ctrls.rdQLenPdf::19                      0                       # What read queue length does an incoming req see
system.mem_ctrls.rdQLenPdf::20                      0                       # What read queue length does an incoming req see
system.mem_ctrls.rdQLenPdf::21                      0                       # What read queue length does an incoming req see
system.mem_ctrls.rdQLenPdf::22                      0                       # What read queue length does an incoming req see
system.mem_ctrls.rdQLenPdf::23                      0                       # What read queue length does an incoming req see
system.mem_ctrls.rdQLenPdf::24                      0                       # What read queue length does an incoming req see
system.mem_ctrls.rdQLenPdf::25                      0                       # What read queue length does an incoming req see
system.mem_ctrls.rdQLenPdf::26                      0                       # What read queue length does an incoming req see
system.mem_ctrls.rdQLenPdf::27                      0                       # What read queue length does an incoming req see
system.mem_ctrls.rdQLenPdf::28                      0                       # What read queue length does an incoming req see
system.mem_ctrls.rdQLenPdf::29                      0                       # What read queue length does an incoming req see
system.mem_ctrls.rdQLenPdf::30                      0                       # What read queue length does an incoming req see
system.mem_ctrls.rdQLenPdf::31                      0                       # What read queue length does an incoming req see
system.mem_ctrls.wrQLenPdf::0                       1                       # What write queue length does an incoming req see
system.mem_ctrls.wrQLenPdf::1                       1                       # What write queue length does an incoming req see
system.mem_ctrls.wrQLenPdf::2                       1                       # What write queue length does an incoming req see
system.mem_ctrls.wrQLenPdf::3                       1                       # What write queue length does an incoming req see
system.mem_ctrls.wrQLenPdf::4                       1                       # What write queue length does an incoming req see
system.mem_ctrls.wrQLenPdf::5                       1                       # What write queue length does an incoming req see
system.mem_ctrls.wrQLenPdf::6                       1                       # What write queue length does an incoming req see
system.mem_ctrls.wrQLenPdf::7                       1                       # What write queue length does an incoming req see
system.mem_ctrls.wrQLenPdf::8                       1                       # What write queue length does an incoming req see
system.mem_ctrls.wrQLenPdf::9                       1                       # What write queue length does an incoming req see
system.mem_ctrls.wrQLenPdf::10                      1                       # What write queue length does an incoming req see
system.mem_ctrls.wrQLenPdf::11                      1                       # What write queue length does an incoming req see
system.mem_ctrls.wrQLenPdf::12                      1                       # What write queue length does an incoming req see
system.mem_ctrls.wrQLenPdf::13                      0                       # What write queue length does an incoming req see
system.mem_ctrls.wrQLenPdf::14                      0                       # What write queue length does an incoming req see
system.mem_ctrls.wrQLenPdf::15                      0                       # What write queue length does an incoming req see
system.mem_ctrls.wrQLenPdf::16                      0                       # What write queue length does an incoming req see
system.mem_ctrls.wrQLenPdf::17                      0                       # What write queue length does an incoming req see
system.mem_ctrls.wrQLenPdf::18                      0                       # What write queue length does an incoming req see
system.mem_ctrls.wrQLenPdf::19                      0                       # What write queue length does an incoming req see
system.mem_ctrls.wrQLenPdf::20                      0                       # What write queue length does an incoming req see
system.mem_ctrls.wrQLenPdf::21                      0                       # What write queue length does an incoming req see
system.mem_ctrls.wrQLenPdf::22                      0                       # What write queue length does an incoming req see
system.mem_ctrls.wrQLenPdf::23                      0                       # What write queue length does an incoming req see
system.mem_ctrls.wrQLenPdf::24                      0                       # What write queue length does an incoming req see
system.mem_ctrls.wrQLenPdf::25                      0                       # What write queue length does an incoming req see
system.mem_ctrls.wrQLenPdf::26                      0                       # What write queue length does an incoming req see
system.mem_ctrls.wrQLenPdf::27                      0                       # What write queue length does an incoming req see
system.mem_ctrls.wrQLenPdf::28                      0                       # What write queue length does an incoming req see
system.mem_ctrls.wrQLenPdf::29                      0                       # What write queue length does an incoming req see
system.mem_ctrls.wrQLenPdf::30                      0                       # What write queue length does an incoming req see
system.mem_ctrls.wrQLenPdf::31                      0                       # What write queue length does an incoming req see
system.mem_ctrls.wrQLenPdf::32                      0                       # What write queue length does an incoming req see
system.mem_ctrls.wrQLenPdf::33                      0                       # What write queue length does an incoming req see
system.mem_ctrls.wrQLenPdf::34                      0                       # What write queue length does an incoming req see
system.mem_ctrls.wrQLenPdf::35                      0                       # What write queue length does an incoming req see
system.mem_ctrls.wrQLenPdf::36                      0                       # What write queue length does an incoming req see
system.mem_ctrls.wrQLenPdf::37                      0                       # What write queue length does an incoming req see
system.mem_ctrls.wrQLenPdf::38                      0                       # What write queue length does an incoming req see
system.mem_ctrls.wrQLenPdf::39                      0                       # What write queue length does an incoming req see
system.mem_ctrls.wrQLenPdf::40                      0                       # What write queue length does an incoming req see
system.mem_ctrls.wrQLenPdf::41                      0                       # What write queue length does an incoming req see
system.mem_ctrls.wrQLenPdf::42                      0                       # What write queue length does an incoming req see
system.mem_ctrls.wrQLenPdf::43                      0                       # What write queue length does an incoming req see
system.mem_ctrls.wrQLenPdf::44                      0                       # What write queue length does an incoming req see
system.mem_ctrls.wrQLenPdf::45                      0                       # What write queue length does an incoming req see
system.mem_ctrls.wrQLenPdf::46                      0                       # What write queue length does an incoming req see
system.mem_ctrls.wrQLenPdf::47                      0                       # What write queue length does an incoming req see
system.mem_ctrls.wrQLenPdf::48                      0                       # What write queue length does an incoming req see
system.mem_ctrls.wrQLenPdf::49                      0                       # What write queue length does an incoming req see
system.mem_ctrls.wrQLenPdf::50                      0                       # What write queue length does an incoming req see
system.mem_ctrls.wrQLenPdf::51                      0                       # What write queue length does an incoming req see
system.mem_ctrls.wrQLenPdf::52                      0                       # What write queue length does an incoming req see
system.mem_ctrls.wrQLenPdf::53                      0                       # What write queue length does an incoming req see
system.mem_ctrls.wrQLenPdf::54                      0                       # What write queue length does an incoming req see
system.mem_ctrls.wrQLenPdf::55                      0                       # What write queue length does an incoming req see
system.mem_ctrls.wrQLenPdf::56                      0                       # What write queue length does an incoming req see
system.mem_ctrls.wrQLenPdf::57                      0                       # What write queue length does an incoming req see
system.mem_ctrls.wrQLenPdf::58                      0                       # What write queue length does an incoming req see
system.mem_ctrls.wrQLenPdf::59                      0                       # What write queue length does an incoming req see
system.mem_ctrls.wrQLenPdf::60                      0                       # What write queue length does an incoming req see
system.mem_ctrls.wrQLenPdf::61                      0                       # What write queue length does an incoming req see
system.mem_ctrls.wrQLenPdf::62                      0                       # What write queue length does an incoming req see
system.mem_ctrls.wrQLenPdf::63                      0                       # What write queue length does an incoming req see
system.mem_ctrls.bytesPerActivate::samples         2461                       # Bytes accessed per row activation
system.mem_ctrls.bytesPerActivate::mean    158.348639                       # Bytes accessed per row activation
system.mem_ctrls.bytesPerActivate::gmean    95.815405                       # Bytes accessed per row activation
system.mem_ctrls.bytesPerActivate::stdev   237.537893                       # Bytes accessed per row activation
system.mem_ctrls.bytesPerActivate::0-127         1852     75.25%     75.25% # Bytes accessed per row activation
system.mem_ctrls.bytesPerActivate::128-255          252     10.24%     85.49% # Bytes accessed per row activation
system.mem_ctrls.bytesPerActivate::256-383           90      3.66%     89.15% # Bytes accessed per row activation
system.mem_ctrls.bytesPerActivate::384-511           63      2.56%     91.71% # Bytes accessed per row activation
system.mem_ctrls.bytesPerActivate::512-639           31      1.26%     92.97% # Bytes accessed per row activation
system.mem_ctrls.bytesPerActivate::640-767           18      0.73%     93.70% # Bytes accessed per row activation
system.mem_ctrls.bytesPerActivate::768-895           22      0.89%     94.60% # Bytes accessed per row activation
system.mem_ctrls.bytesPerActivate::896-1023           11      0.45%     95.04% # Bytes accessed per row activation
system.mem_ctrls.bytesPerActivate::1024-1151          122      4.96%    100.00% # Bytes accessed per row activation
system.mem_ctrls.bytesPerActivate::total         2461                       # Bytes accessed per row activation
system.mem_ctrls.totQLat                    162017250                       # Total ticks spent queuing
system.mem_ctrls.totMemAccLat               276186000                       # Total ticks spent from burst creation until serviced by the DRAM
system.mem_ctrls.totBusLat                   30445000                       # Total ticks spent in databus transfers
system.mem_ctrls.avgQLat                     26608.19                       # Average queueing delay per DRAM burst
system.mem_ctrls.avgBusLat                    5000.00                       # Average bus latency per DRAM burst
system.mem_ctrls.avgMemAccLat                45358.19                       # Average memory access latency per DRAM burst
system.mem_ctrls.avgRdBW                         0.41                       # Average DRAM read bandwidth in MiByte/s
system.mem_ctrls.avgWrBW                         0.00                       # Average achieved write bandwidth in MiByte/s
system.mem_ctrls.avgRdBWSys                      0.41                       # Average system read bandwidth in MiByte/s
system.mem_ctrls.avgWrBWSys                      0.00                       # Average system write bandwidth in MiByte/s
system.mem_ctrls.peakBW                      12800.00                       # Theoretical peak bandwidth in MiByte/s
system.mem_ctrls.busUtil                         0.00                       # Data bus utilization in percentage
system.mem_ctrls.busUtilRead                     0.00                       # Data bus utilization in percentage for reads
system.mem_ctrls.busUtilWrite                    0.00                       # Data bus utilization in percentage for writes
system.mem_ctrls.avgRdQLen                       1.00                       # Average read queue length when enqueuing
system.mem_ctrls.avgWrQLen                      12.90                       # Average write queue length when enqueuing
system.mem_ctrls.readRowHits                     3628                       # Number of row buffer hits during reads
system.mem_ctrls.writeRowHits                       0                       # Number of row buffer hits during writes
system.mem_ctrls.readRowHitRate                 59.58                       # Row buffer hit rate for reads
system.mem_ctrls.writeRowHitRate                 0.00                       # Row buffer hit rate for writes
system.mem_ctrls.avgGap                   84898271.54                       # Average gap between requests
system.mem_ctrls.pageHitRate                    59.46                       # Row buffer hit rate, read and write combined
system.mem_ctrls_0.actEnergy                  8211000                       # Energy for activate commands per rank (pJ)
system.mem_ctrls_0.preEnergy                  4364250                       # Energy for precharge commands per rank (pJ)
system.mem_ctrls_0.readEnergy                21698460                       # Energy for read commands per rank (pJ)
system.mem_ctrls_0.writeEnergy                      0                       # Energy for write commands per rank (pJ)
system.mem_ctrls_0.refreshEnergy         413038080.000000                       # Energy for refresh commands per rank (pJ)
system.mem_ctrls_0.actBackEnergy            116334150                       # Energy for active background per rank (pJ)
system.mem_ctrls_0.preBackEnergy             12779040                       # Energy for precharge background per rank (pJ)
system.mem_ctrls_0.actPowerDownEnergy      1656355020                       # Energy for active power-down per rank (pJ)
system.mem_ctrls_0.prePowerDownEnergy       384043200                       # Energy for precharge power-down per rank (pJ)
system.mem_ctrls_0.selfRefreshEnergy     227414315220                       # Energy for self refresh per rank (pJ)
system.mem_ctrls_0.totalEnergy           230031138420                       # Total energy per rank (pJ)
system.mem_ctrls_0.averagePower            241.532538                       # Core power per rank (mW)
system.mem_ctrls_0.totalIdleTime         517944619250                       # Total Idle time Per DRAM Rank
system.mem_ctrls_0.memoryStateTime::IDLE     15029500                       # Time in different power states
system.mem_ctrls_0.memoryStateTime::REF     175014000                       # Time in different power states
system.mem_ctrls_0.memoryStateTime::SREF 947460705250                       # Time in different power states
system.mem_ctrls_0.memoryStateTime::PRE_PDN   1000106000                       # Time in different power states
system.mem_ctrls_0.memoryStateTime::ACT      98308250                       # Time in different power states
system.mem_ctrls_0.memoryStateTime::ACT_PDN   3632407500                       # Time in different power states
system.mem_ctrls_1.actEnergy                  9360540                       # Energy for activate commands per rank (pJ)
system.mem_ctrls_1.preEnergy                  4975245                       # Energy for precharge commands per rank (pJ)
system.mem_ctrls_1.readEnergy                21777000                       # Energy for read commands per rank (pJ)
system.mem_ctrls_1.writeEnergy                      0                       # Energy for write commands per rank (pJ)
system.mem_ctrls_1.refreshEnergy         373086480.000000                       # Energy for refresh commands per rank (pJ)
system.mem_ctrls_1.actBackEnergy            111725130                       # Energy for active background per rank (pJ)
system.mem_ctrls_1.preBackEnergy             11022240                       # Energy for precharge background per rank (pJ)
system.mem_ctrls_1.actPowerDownEnergy      1671475410                       # Energy for active power-down per rank (pJ)
system.mem_ctrls_1.prePowerDownEnergy       213137280                       # Energy for precharge power-down per rank (pJ)
system.mem_ctrls_1.selfRefreshEnergy     227510651685                       # Energy for self refresh per rank (pJ)
system.mem_ctrls_1.totalEnergy           229927318890                       # Total energy per rank (pJ)
system.mem_ctrls_1.averagePower            241.423528                       # Core power per rank (mW)
system.mem_ctrls_1.totalIdleTime          15941121750                       # Total Idle time Per DRAM Rank
system.mem_ctrls_1.memoryStateTime::IDLE     12523000                       # Time in different power states
system.mem_ctrls_1.memoryStateTime::REF     158024000                       # Time in different power states
system.mem_ctrls_1.memoryStateTime::SREF 947887058750                       # Time in different power states
system.mem_ctrls_1.memoryStateTime::PRE_PDN    554913250                       # Time in different power states
system.mem_ctrls_1.memoryStateTime::ACT     103531750                       # Time in different power states
system.mem_ctrls_1.memoryStateTime::ACT_PDN   3665519750                       # Time in different power states
system.pwrStateResidencyTicks::UNDEFINED 952381570500                       # Cumulative time (in ticks) in various power states
system.cpu_voltage_domain.voltage                   1                       # Voltage in Volts
system.cpu_clk_domain.clock                       500                       # Clock period in ticks
system.cpu.dtb.walker.pwrStateResidencyTicks::UNDEFINED 952381570500                       # Cumulative time (in ticks) in various power states
system.cpu.apic_clk_domain.clock                 8000                       # Clock period in ticks
system.cpu.interrupts.pwrStateResidencyTicks::UNDEFINED 952381570500                       # Cumulative time (in ticks) in various power states
system.cpu.itb.walker.pwrStateResidencyTicks::UNDEFINED 952381570500                       # Cumulative time (in ticks) in various power states
system.cpu.workload.num_syscalls                   34                       # Number of system calls
system.cpu.pwrStateResidencyTicks::ON    952381570500                       # Cumulative time (in ticks) in various power states
system.cpu.numCycles                       1904763141                       # number of cpu cycles simulated
system.cpu.numWorkItemsStarted                      0                       # number of work items this cpu started
system.cpu.numWorkItemsCompleted                    0                       # number of work items this cpu completed
system.cpu.committedInsts                   500000000                       # Number of instructions committed
system.cpu.committedOps                     644780824                       # Number of ops (including micro ops) committed
system.cpu.num_int_alu_accesses             625781845                       # Number of integer alu accesses
system.cpu.num_fp_alu_accesses               27680885                       # Number of float alu accesses
system.cpu.num_func_calls                     1532449                       # number of times a function call or return occured
system.cpu.num_conditional_control_insts     25288260                       # number of instructions that are conditional controls
system.cpu.num_int_insts                    625781845                       # number of integer instructions
system.cpu.num_fp_insts                      27680885                       # number of float instructions
system.cpu.num_int_register_reads          1467255983                       # number of times the integer registers were read
system.cpu.num_int_register_writes          569426959                       # number of times the integer registers were written
system.cpu.num_fp_register_reads             21886167                       # number of times the floating registers were read
system.cpu.num_fp_register_writes            23676651                       # number of times the floating registers were written
system.cpu.num_cc_register_reads            187287140                       # number of times the CC registers were read
system.cpu.num_cc_register_writes           260710310                       # number of times the CC registers were written
system.cpu.num_mem_refs                     254811579                       # number of memory refs
system.cpu.num_load_insts                   219158147                       # Number of load instructions
system.cpu.num_store_insts                   35653432                       # Number of store instructions
system.cpu.num_idle_cycles                          0                       # Number of idle cycles
system.cpu.num_busy_cycles                 1904763141                       # Number of busy cycles
system.cpu.not_idle_fraction                        1                       # Percentage of non-idle cycles
system.cpu.idle_fraction                            0                       # Percentage of idle cycles
system.cpu.Branches                          27593151                       # Number of branches fetched
system.cpu.op_class::No_OpClass               1477149      0.23%      0.23% # Class of executed instruction
system.cpu.op_class::IntAlu                 363712896     56.41%     56.64% # Class of executed instruction
system.cpu.op_class::IntMult                   612864      0.10%     56.73% # Class of executed instruction
system.cpu.op_class::IntDiv                   6327906      0.98%     57.71% # Class of executed instruction
system.cpu.op_class::FloatAdd                17838430      2.77%     60.48% # Class of executed instruction
system.cpu.op_class::FloatCmp                       0      0.00%     60.48% # Class of executed instruction
system.cpu.op_class::FloatCvt                       0      0.00%     60.48% # Class of executed instruction
system.cpu.op_class::FloatMult                      0      0.00%     60.48% # Class of executed instruction
system.cpu.op_class::FloatDiv                       0      0.00%     60.48% # Class of executed instruction
system.cpu.op_class::FloatSqrt                      0      0.00%     60.48% # Class of executed instruction
system.cpu.op_class::SimdAdd                        0      0.00%     60.48% # Class of executed instruction
system.cpu.op_class::SimdAddAcc                     0      0.00%     60.48% # Class of executed instruction
system.cpu.op_class::SimdAlu                        0      0.00%     60.48% # Class of executed instruction
system.cpu.op_class::SimdCmp                        0      0.00%     60.48% # Class of executed instruction
system.cpu.op_class::SimdCvt                        0      0.00%     60.48% # Class of executed instruction
system.cpu.op_class::SimdMisc                       0      0.00%     60.48% # Class of executed instruction
system.cpu.op_class::SimdMult                       0      0.00%     60.48% # Class of executed instruction
system.cpu.op_class::SimdMultAcc                    0      0.00%     60.48% # Class of executed instruction
system.cpu.op_class::SimdShift                      0      0.00%     60.48% # Class of executed instruction
system.cpu.op_class::SimdShiftAcc                   0      0.00%     60.48% # Class of executed instruction
system.cpu.op_class::SimdSqrt                       0      0.00%     60.48% # Class of executed instruction
system.cpu.op_class::SimdFloatAdd                   0      0.00%     60.48% # Class of executed instruction
system.cpu.op_class::SimdFloatAlu                   0      0.00%     60.48% # Class of executed instruction
system.cpu.op_class::SimdFloatCmp                   0      0.00%     60.48% # Class of executed instruction
system.cpu.op_class::SimdFloatCvt                   0      0.00%     60.48% # Class of executed instruction
system.cpu.op_class::SimdFloatDiv                   0      0.00%     60.48% # Class of executed instruction
system.cpu.op_class::SimdFloatMisc                  0      0.00%     60.48% # Class of executed instruction
system.cpu.op_class::SimdFloatMult                  0      0.00%     60.48% # Class of executed instruction
system.cpu.op_class::SimdFloatMultAcc               0      0.00%     60.48% # Class of executed instruction
system.cpu.op_class::SimdFloatSqrt                  0      0.00%     60.48% # Class of executed instruction
system.cpu.op_class::MemRead                219158147     33.99%     94.47% # Class of executed instruction
system.cpu.op_class::MemWrite                35653432      5.53%    100.00% # Class of executed instruction
system.cpu.op_class::IprAccess                      0      0.00%    100.00% # Class of executed instruction
system.cpu.op_class::InstPrefetch                   0      0.00%    100.00% # Class of executed instruction
system.cpu.op_class::total                  644780824                       # Class of executed instruction
system.cpu.dcache.tags.pwrStateResidencyTicks::UNDEFINED 952381570500                       # Cumulative time (in ticks) in various power states
system.cpu.dcache.tags.replacements             88744                       # number of replacements
system.cpu.dcache.tags.tagsinuse          2044.600260                       # Cycle average of tags in use
system.cpu.dcache.tags.total_refs           254721337                       # Total number of references to valid blocks.
system.cpu.dcache.tags.sampled_refs             90792                       # Sample count of references to valid blocks.
system.cpu.dcache.tags.avg_refs           2805.548253                       # Average number of references to valid blocks.
system.cpu.dcache.tags.warmup_cycle        6232000500                       # Cycle when the warmup percentage was hit.
system.cpu.dcache.tags.occ_blocks::cpu.data  2044.600260                       # Average occupied blocks per requestor
system.cpu.dcache.tags.occ_percent::cpu.data     0.998340                       # Average percentage of cache occupancy
system.cpu.dcache.tags.occ_percent::total     0.998340                       # Average percentage of cache occupancy
system.cpu.dcache.tags.occ_task_id_blocks::1024         2048                       # Occupied blocks per task id
system.cpu.dcache.tags.age_task_id_blocks_1024::1            2                       # Occupied blocks per task id
system.cpu.dcache.tags.age_task_id_blocks_1024::2           88                       # Occupied blocks per task id
system.cpu.dcache.tags.age_task_id_blocks_1024::3          258                       # Occupied blocks per task id
system.cpu.dcache.tags.age_task_id_blocks_1024::4         1700                       # Occupied blocks per task id
system.cpu.dcache.tags.occ_task_id_percent::1024            1                       # Percentage of cache occupancy per task id
system.cpu.dcache.tags.tag_accesses        1019339308                       # Number of tag accesses
system.cpu.dcache.tags.data_accesses       1019339308                       # Number of data accesses
system.cpu.dcache.pwrStateResidencyTicks::UNDEFINED 952381570500                       # Cumulative time (in ticks) in various power states
system.cpu.dcache.ReadReq_hits::cpu.data    219133269                       # number of ReadReq hits
system.cpu.dcache.ReadReq_hits::total       219133269                       # number of ReadReq hits
system.cpu.dcache.WriteReq_hits::cpu.data     35587305                       # number of WriteReq hits
system.cpu.dcache.WriteReq_hits::total       35587305                       # number of WriteReq hits
system.cpu.dcache.SoftPFReq_hits::cpu.data          763                       # number of SoftPFReq hits
system.cpu.dcache.SoftPFReq_hits::total           763                       # number of SoftPFReq hits
system.cpu.dcache.demand_hits::cpu.data     254720574                       # number of demand (read+write) hits
system.cpu.dcache.demand_hits::total        254720574                       # number of demand (read+write) hits
system.cpu.dcache.overall_hits::cpu.data    254721337                       # number of overall hits
system.cpu.dcache.overall_hits::total       254721337                       # number of overall hits
system.cpu.dcache.ReadReq_misses::cpu.data        23158                       # number of ReadReq misses
system.cpu.dcache.ReadReq_misses::total         23158                       # number of ReadReq misses
system.cpu.dcache.WriteReq_misses::cpu.data        66173                       # number of WriteReq misses
system.cpu.dcache.WriteReq_misses::total        66173                       # number of WriteReq misses
system.cpu.dcache.SoftPFReq_misses::cpu.data         1461                       # number of SoftPFReq misses
system.cpu.dcache.SoftPFReq_misses::total         1461                       # number of SoftPFReq misses
system.cpu.dcache.demand_misses::cpu.data        89331                       # number of demand (read+write) misses
system.cpu.dcache.demand_misses::total          89331                       # number of demand (read+write) misses
system.cpu.dcache.overall_misses::cpu.data        90792                       # number of overall misses
system.cpu.dcache.overall_misses::total         90792                       # number of overall misses
system.cpu.dcache.ReadReq_miss_latency::cpu.data    366574000                       # number of ReadReq miss cycles
system.cpu.dcache.ReadReq_miss_latency::total    366574000                       # number of ReadReq miss cycles
system.cpu.dcache.WriteReq_miss_latency::cpu.data   1166955500                       # number of WriteReq miss cycles
system.cpu.dcache.WriteReq_miss_latency::total   1166955500                       # number of WriteReq miss cycles
system.cpu.dcache.demand_miss_latency::cpu.data   1533529500                       # number of demand (read+write) miss cycles
system.cpu.dcache.demand_miss_latency::total   1533529500                       # number of demand (read+write) miss cycles
system.cpu.dcache.overall_miss_latency::cpu.data   1533529500                       # number of overall miss cycles
system.cpu.dcache.overall_miss_latency::total   1533529500                       # number of overall miss cycles
system.cpu.dcache.ReadReq_accesses::cpu.data    219156427                       # number of ReadReq accesses(hits+misses)
system.cpu.dcache.ReadReq_accesses::total    219156427                       # number of ReadReq accesses(hits+misses)
system.cpu.dcache.WriteReq_accesses::cpu.data     35653478                       # number of WriteReq accesses(hits+misses)
system.cpu.dcache.WriteReq_accesses::total     35653478                       # number of WriteReq accesses(hits+misses)
system.cpu.dcache.SoftPFReq_accesses::cpu.data         2224                       # number of SoftPFReq accesses(hits+misses)
system.cpu.dcache.SoftPFReq_accesses::total         2224                       # number of SoftPFReq accesses(hits+misses)
system.cpu.dcache.demand_accesses::cpu.data    254809905                       # number of demand (read+write) accesses
system.cpu.dcache.demand_accesses::total    254809905                       # number of demand (read+write) accesses
system.cpu.dcache.overall_accesses::cpu.data    254812129                       # number of overall (read+write) accesses
system.cpu.dcache.overall_accesses::total    254812129                       # number of overall (read+write) accesses
system.cpu.dcache.ReadReq_miss_rate::cpu.data     0.000106                       # miss rate for ReadReq accesses
system.cpu.dcache.ReadReq_miss_rate::total     0.000106                       # miss rate for ReadReq accesses
system.cpu.dcache.WriteReq_miss_rate::cpu.data     0.001856                       # miss rate for WriteReq accesses
system.cpu.dcache.WriteReq_miss_rate::total     0.001856                       # miss rate for WriteReq accesses
system.cpu.dcache.SoftPFReq_miss_rate::cpu.data     0.656924                       # miss rate for SoftPFReq accesses
system.cpu.dcache.SoftPFReq_miss_rate::total     0.656924                       # miss rate for SoftPFReq accesses
system.cpu.dcache.demand_miss_rate::cpu.data     0.000351                       # miss rate for demand accesses
system.cpu.dcache.demand_miss_rate::total     0.000351                       # miss rate for demand accesses
system.cpu.dcache.overall_miss_rate::cpu.data     0.000356                       # miss rate for overall accesses
system.cpu.dcache.overall_miss_rate::total     0.000356                       # miss rate for overall accesses
system.cpu.dcache.ReadReq_avg_miss_latency::cpu.data 15829.259867                       # average ReadReq miss latency
system.cpu.dcache.ReadReq_avg_miss_latency::total 15829.259867                       # average ReadReq miss latency
system.cpu.dcache.WriteReq_avg_miss_latency::cpu.data 17634.919076                       # average WriteReq miss latency
system.cpu.dcache.WriteReq_avg_miss_latency::total 17634.919076                       # average WriteReq miss latency
system.cpu.dcache.demand_avg_miss_latency::cpu.data 17166.823387                       # average overall miss latency
system.cpu.dcache.demand_avg_miss_latency::total 17166.823387                       # average overall miss latency
system.cpu.dcache.overall_avg_miss_latency::cpu.data 16890.579566                       # average overall miss latency
system.cpu.dcache.overall_avg_miss_latency::total 16890.579566                       # average overall miss latency
system.cpu.dcache.blocked_cycles::no_mshrs         5427                       # number of cycles access was blocked
system.cpu.dcache.blocked_cycles::no_targets            0                       # number of cycles access was blocked
system.cpu.dcache.blocked::no_mshrs               120                       # number of cycles access was blocked
system.cpu.dcache.blocked::no_targets               0                       # number of cycles access was blocked
system.cpu.dcache.avg_blocked_cycles::no_mshrs    45.225000                       # average number of cycles each access was blocked
system.cpu.dcache.avg_blocked_cycles::no_targets          nan                       # average number of cycles each access was blocked
system.cpu.dcache.writebacks::writebacks        86093                       # number of writebacks
system.cpu.dcache.writebacks::total             86093                       # number of writebacks
system.cpu.dcache.ReadReq_mshr_misses::cpu.data        23158                       # number of ReadReq MSHR misses
system.cpu.dcache.ReadReq_mshr_misses::total        23158                       # number of ReadReq MSHR misses
system.cpu.dcache.WriteReq_mshr_misses::cpu.data        66173                       # number of WriteReq MSHR misses
system.cpu.dcache.WriteReq_mshr_misses::total        66173                       # number of WriteReq MSHR misses
system.cpu.dcache.SoftPFReq_mshr_misses::cpu.data         1461                       # number of SoftPFReq MSHR misses
system.cpu.dcache.SoftPFReq_mshr_misses::total         1461                       # number of SoftPFReq MSHR misses
system.cpu.dcache.demand_mshr_misses::cpu.data        89331                       # number of demand (read+write) MSHR misses
system.cpu.dcache.demand_mshr_misses::total        89331                       # number of demand (read+write) MSHR misses
system.cpu.dcache.overall_mshr_misses::cpu.data        90792                       # number of overall MSHR misses
system.cpu.dcache.overall_mshr_misses::total        90792                       # number of overall MSHR misses
system.cpu.dcache.ReadReq_mshr_miss_latency::cpu.data    343416000                       # number of ReadReq MSHR miss cycles
system.cpu.dcache.ReadReq_mshr_miss_latency::total    343416000                       # number of ReadReq MSHR miss cycles
system.cpu.dcache.WriteReq_mshr_miss_latency::cpu.data   1100782500                       # number of WriteReq MSHR miss cycles
system.cpu.dcache.WriteReq_mshr_miss_latency::total   1100782500                       # number of WriteReq MSHR miss cycles
system.cpu.dcache.SoftPFReq_mshr_miss_latency::cpu.data     56282998                       # number of SoftPFReq MSHR miss cycles
system.cpu.dcache.SoftPFReq_mshr_miss_latency::total     56282998                       # number of SoftPFReq MSHR miss cycles
system.cpu.dcache.demand_mshr_miss_latency::cpu.data   1444198500                       # number of demand (read+write) MSHR miss cycles
system.cpu.dcache.demand_mshr_miss_latency::total   1444198500                       # number of demand (read+write) MSHR miss cycles
system.cpu.dcache.overall_mshr_miss_latency::cpu.data   1500481498                       # number of overall MSHR miss cycles
system.cpu.dcache.overall_mshr_miss_latency::total   1500481498                       # number of overall MSHR miss cycles
system.cpu.dcache.ReadReq_mshr_miss_rate::cpu.data     0.000106                       # mshr miss rate for ReadReq accesses
system.cpu.dcache.ReadReq_mshr_miss_rate::total     0.000106                       # mshr miss rate for ReadReq accesses
system.cpu.dcache.WriteReq_mshr_miss_rate::cpu.data     0.001856                       # mshr miss rate for WriteReq accesses
system.cpu.dcache.WriteReq_mshr_miss_rate::total     0.001856                       # mshr miss rate for WriteReq accesses
system.cpu.dcache.SoftPFReq_mshr_miss_rate::cpu.data     0.656924                       # mshr miss rate for SoftPFReq accesses
system.cpu.dcache.SoftPFReq_mshr_miss_rate::total     0.656924                       # mshr miss rate for SoftPFReq accesses
system.cpu.dcache.demand_mshr_miss_rate::cpu.data     0.000351                       # mshr miss rate for demand accesses
system.cpu.dcache.demand_mshr_miss_rate::total     0.000351                       # mshr miss rate for demand accesses
system.cpu.dcache.overall_mshr_miss_rate::cpu.data     0.000356                       # mshr miss rate for overall accesses
system.cpu.dcache.overall_mshr_miss_rate::total     0.000356                       # mshr miss rate for overall accesses
system.cpu.dcache.ReadReq_avg_mshr_miss_latency::cpu.data 14829.259867                       # average ReadReq mshr miss latency
system.cpu.dcache.ReadReq_avg_mshr_miss_latency::total 14829.259867                       # average ReadReq mshr miss latency
system.cpu.dcache.WriteReq_avg_mshr_miss_latency::cpu.data 16634.919076                       # average WriteReq mshr miss latency
system.cpu.dcache.WriteReq_avg_mshr_miss_latency::total 16634.919076                       # average WriteReq mshr miss latency
system.cpu.dcache.SoftPFReq_avg_mshr_miss_latency::cpu.data 38523.612594                       # average SoftPFReq mshr miss latency
system.cpu.dcache.SoftPFReq_avg_mshr_miss_latency::total 38523.612594                       # average SoftPFReq mshr miss latency
system.cpu.dcache.demand_avg_mshr_miss_latency::cpu.data 16166.823387                       # average overall mshr miss latency
system.cpu.dcache.demand_avg_mshr_miss_latency::total 16166.823387                       # average overall mshr miss latency
system.cpu.dcache.overall_avg_mshr_miss_latency::cpu.data 16526.582717                       # average overall mshr miss latency
system.cpu.dcache.overall_avg_mshr_miss_latency::total 16526.582717                       # average overall mshr miss latency
system.cpu.dtb_walker_cache.tags.pwrStateResidencyTicks::UNDEFINED 952381570500                       # Cumulative time (in ticks) in various power states
system.cpu.dtb_walker_cache.tags.replacements            0                       # number of replacements
system.cpu.dtb_walker_cache.tags.tagsinuse            0                       # Cycle average of tags in use
system.cpu.dtb_walker_cache.tags.total_refs            0                       # Total number of references to valid blocks.
system.cpu.dtb_walker_cache.tags.sampled_refs            0                       # Sample count of references to valid blocks.
system.cpu.dtb_walker_cache.tags.avg_refs          nan                       # Average number of references to valid blocks.
system.cpu.dtb_walker_cache.tags.warmup_cycle            0                       # Cycle when the warmup percentage was hit.
system.cpu.dtb_walker_cache.tags.tag_accesses            0                       # Number of tag accesses
system.cpu.dtb_walker_cache.tags.data_accesses            0                       # Number of data accesses
system.cpu.dtb_walker_cache.pwrStateResidencyTicks::UNDEFINED 952381570500                       # Cumulative time (in ticks) in various power states
system.cpu.dtb_walker_cache.blocked_cycles::no_mshrs            0                       # number of cycles access was blocked
system.cpu.dtb_walker_cache.blocked_cycles::no_targets            0                       # number of cycles access was blocked
system.cpu.dtb_walker_cache.blocked::no_mshrs            0                       # number of cycles access was blocked
system.cpu.dtb_walker_cache.blocked::no_targets            0                       # number of cycles access was blocked
system.cpu.dtb_walker_cache.avg_blocked_cycles::no_mshrs          nan                       # average number of cycles each access was blocked
system.cpu.dtb_walker_cache.avg_blocked_cycles::no_targets          nan                       # average number of cycles each access was blocked
system.cpu.icache.tags.pwrStateResidencyTicks::UNDEFINED 952381570500                       # Cumulative time (in ticks) in various power states
system.cpu.icache.tags.replacements              1017                       # number of replacements
system.cpu.icache.tags.tagsinuse           511.966322                       # Cycle average of tags in use
system.cpu.icache.tags.total_refs           695991701                       # Total number of references to valid blocks.
system.cpu.icache.tags.sampled_refs              1529                       # Sample count of references to valid blocks.
system.cpu.icache.tags.avg_refs          455194.049052                       # Average number of references to valid blocks.
system.cpu.icache.tags.warmup_cycle        1158927500                       # Cycle when the warmup percentage was hit.
system.cpu.icache.tags.occ_blocks::cpu.inst   511.966322                       # Average occupied blocks per requestor
system.cpu.icache.tags.occ_percent::cpu.inst     0.999934                       # Average percentage of cache occupancy
system.cpu.icache.tags.occ_percent::total     0.999934                       # Average percentage of cache occupancy
system.cpu.icache.tags.occ_task_id_blocks::1024          512                       # Occupied blocks per task id
system.cpu.icache.tags.age_task_id_blocks_1024::4          512                       # Occupied blocks per task id
system.cpu.icache.tags.occ_task_id_percent::1024            1                       # Percentage of cache occupancy per task id
system.cpu.icache.tags.tag_accesses        2783974449                       # Number of tag accesses
system.cpu.icache.tags.data_accesses       2783974449                       # Number of data accesses
system.cpu.icache.pwrStateResidencyTicks::UNDEFINED 952381570500                       # Cumulative time (in ticks) in various power states
system.cpu.icache.ReadReq_hits::cpu.inst    695991701                       # number of ReadReq hits
system.cpu.icache.ReadReq_hits::total       695991701                       # number of ReadReq hits
system.cpu.icache.demand_hits::cpu.inst     695991701                       # number of demand (read+write) hits
system.cpu.icache.demand_hits::total        695991701                       # number of demand (read+write) hits
system.cpu.icache.overall_hits::cpu.inst    695991701                       # number of overall hits
system.cpu.icache.overall_hits::total       695991701                       # number of overall hits
system.cpu.icache.ReadReq_misses::cpu.inst         1529                       # number of ReadReq misses
system.cpu.icache.ReadReq_misses::total          1529                       # number of ReadReq misses
system.cpu.icache.demand_misses::cpu.inst         1529                       # number of demand (read+write) misses
system.cpu.icache.demand_misses::total           1529                       # number of demand (read+write) misses
system.cpu.icache.overall_misses::cpu.inst         1529                       # number of overall misses
system.cpu.icache.overall_misses::total          1529                       # number of overall misses
system.cpu.icache.ReadReq_miss_latency::cpu.inst    131292500                       # number of ReadReq miss cycles
system.cpu.icache.ReadReq_miss_latency::total    131292500                       # number of ReadReq miss cycles
system.cpu.icache.demand_miss_latency::cpu.inst    131292500                       # number of demand (read+write) miss cycles
system.cpu.icache.demand_miss_latency::total    131292500                       # number of demand (read+write) miss cycles
system.cpu.icache.overall_miss_latency::cpu.inst    131292500                       # number of overall miss cycles
system.cpu.icache.overall_miss_latency::total    131292500                       # number of overall miss cycles
system.cpu.icache.ReadReq_accesses::cpu.inst    695993230                       # number of ReadReq accesses(hits+misses)
system.cpu.icache.ReadReq_accesses::total    695993230                       # number of ReadReq accesses(hits+misses)
system.cpu.icache.demand_accesses::cpu.inst    695993230                       # number of demand (read+write) accesses
system.cpu.icache.demand_accesses::total    695993230                       # number of demand (read+write) accesses
system.cpu.icache.overall_accesses::cpu.inst    695993230                       # number of overall (read+write) accesses
system.cpu.icache.overall_accesses::total    695993230                       # number of overall (read+write) accesses
system.cpu.icache.ReadReq_miss_rate::cpu.inst     0.000002                       # miss rate for ReadReq accesses
system.cpu.icache.ReadReq_miss_rate::total     0.000002                       # miss rate for ReadReq accesses
system.cpu.icache.demand_miss_rate::cpu.inst     0.000002                       # miss rate for demand accesses
system.cpu.icache.demand_miss_rate::total     0.000002                       # miss rate for demand accesses
system.cpu.icache.overall_miss_rate::cpu.inst     0.000002                       # miss rate for overall accesses
system.cpu.icache.overall_miss_rate::total     0.000002                       # miss rate for overall accesses
system.cpu.icache.ReadReq_avg_miss_latency::cpu.inst 85868.214519                       # average ReadReq miss latency
system.cpu.icache.ReadReq_avg_miss_latency::total 85868.214519                       # average ReadReq miss latency
system.cpu.icache.demand_avg_miss_latency::cpu.inst 85868.214519                       # average overall miss latency
system.cpu.icache.demand_avg_miss_latency::total 85868.214519                       # average overall miss latency
system.cpu.icache.overall_avg_miss_latency::cpu.inst 85868.214519                       # average overall miss latency
system.cpu.icache.overall_avg_miss_latency::total 85868.214519                       # average overall miss latency
system.cpu.icache.blocked_cycles::no_mshrs            0                       # number of cycles access was blocked
system.cpu.icache.blocked_cycles::no_targets            0                       # number of cycles access was blocked
system.cpu.icache.blocked::no_mshrs                 0                       # number of cycles access was blocked
system.cpu.icache.blocked::no_targets               0                       # number of cycles access was blocked
system.cpu.icache.avg_blocked_cycles::no_mshrs          nan                       # average number of cycles each access was blocked
system.cpu.icache.avg_blocked_cycles::no_targets          nan                       # average number of cycles each access was blocked
system.cpu.icache.writebacks::writebacks         1017                       # number of writebacks
system.cpu.icache.writebacks::total              1017                       # number of writebacks
system.cpu.icache.ReadReq_mshr_misses::cpu.inst         1529                       # number of ReadReq MSHR misses
system.cpu.icache.ReadReq_mshr_misses::total         1529                       # number of ReadReq MSHR misses
system.cpu.icache.demand_mshr_misses::cpu.inst         1529                       # number of demand (read+write) MSHR misses
system.cpu.icache.demand_mshr_misses::total         1529                       # number of demand (read+write) MSHR misses
system.cpu.icache.overall_mshr_misses::cpu.inst         1529                       # number of overall MSHR misses
system.cpu.icache.overall_mshr_misses::total         1529                       # number of overall MSHR misses
system.cpu.icache.ReadReq_mshr_miss_latency::cpu.inst    129763500                       # number of ReadReq MSHR miss cycles
system.cpu.icache.ReadReq_mshr_miss_latency::total    129763500                       # number of ReadReq MSHR miss cycles
system.cpu.icache.demand_mshr_miss_latency::cpu.inst    129763500                       # number of demand (read+write) MSHR miss cycles
system.cpu.icache.demand_mshr_miss_latency::total    129763500                       # number of demand (read+write) MSHR miss cycles
system.cpu.icache.overall_mshr_miss_latency::cpu.inst    129763500                       # number of overall MSHR miss cycles
system.cpu.icache.overall_mshr_miss_latency::total    129763500                       # number of overall MSHR miss cycles
system.cpu.icache.ReadReq_mshr_miss_rate::cpu.inst     0.000002                       # mshr miss rate for ReadReq accesses
system.cpu.icache.ReadReq_mshr_miss_rate::total     0.000002                       # mshr miss rate for ReadReq accesses
system.cpu.icache.demand_mshr_miss_rate::cpu.inst     0.000002                       # mshr miss rate for demand accesses
system.cpu.icache.demand_mshr_miss_rate::total     0.000002                       # mshr miss rate for demand accesses
system.cpu.icache.overall_mshr_miss_rate::cpu.inst     0.000002                       # mshr miss rate for overall accesses
system.cpu.icache.overall_mshr_miss_rate::total     0.000002                       # mshr miss rate for overall accesses
system.cpu.icache.ReadReq_avg_mshr_miss_latency::cpu.inst 84868.214519                       # average ReadReq mshr miss latency
system.cpu.icache.ReadReq_avg_mshr_miss_latency::total 84868.214519                       # average ReadReq mshr miss latency
system.cpu.icache.demand_avg_mshr_miss_latency::cpu.inst 84868.214519                       # average overall mshr miss latency
system.cpu.icache.demand_avg_mshr_miss_latency::total 84868.214519                       # average overall mshr miss latency
system.cpu.icache.overall_avg_mshr_miss_latency::cpu.inst 84868.214519                       # average overall mshr miss latency
system.cpu.icache.overall_avg_mshr_miss_latency::total 84868.214519                       # average overall mshr miss latency
system.cpu.itb_walker_cache.tags.pwrStateResidencyTicks::UNDEFINED 952381570500                       # Cumulative time (in ticks) in various power states
system.cpu.itb_walker_cache.tags.replacements            0                       # number of replacements
system.cpu.itb_walker_cache.tags.tagsinuse            0                       # Cycle average of tags in use
system.cpu.itb_walker_cache.tags.total_refs            0                       # Total number of references to valid blocks.
system.cpu.itb_walker_cache.tags.sampled_refs            0                       # Sample count of references to valid blocks.
system.cpu.itb_walker_cache.tags.avg_refs          nan                       # Average number of references to valid blocks.
system.cpu.itb_walker_cache.tags.warmup_cycle            0                       # Cycle when the warmup percentage was hit.
system.cpu.itb_walker_cache.tags.tag_accesses            0                       # Number of tag accesses
system.cpu.itb_walker_cache.tags.data_accesses            0                       # Number of data accesses
system.cpu.itb_walker_cache.pwrStateResidencyTicks::UNDEFINED 952381570500                       # Cumulative time (in ticks) in various power states
system.cpu.itb_walker_cache.blocked_cycles::no_mshrs            0                       # number of cycles access was blocked
system.cpu.itb_walker_cache.blocked_cycles::no_targets            0                       # number of cycles access was blocked
system.cpu.itb_walker_cache.blocked::no_mshrs            0                       # number of cycles access was blocked
system.cpu.itb_walker_cache.blocked::no_targets            0                       # number of cycles access was blocked
system.cpu.itb_walker_cache.avg_blocked_cycles::no_mshrs          nan                       # average number of cycles each access was blocked
system.cpu.itb_walker_cache.avg_blocked_cycles::no_targets          nan                       # average number of cycles each access was blocked
system.l2.tags.pwrStateResidencyTicks::UNDEFINED 952381570500                       # Cumulative time (in ticks) in various power states
system.l2.tags.replacements                       487                       # number of replacements
system.l2.tags.tagsinuse                  5678.986886                       # Cycle average of tags in use
system.l2.tags.total_refs                      175806                       # Total number of references to valid blocks.
system.l2.tags.sampled_refs                      6203                       # Sample count of references to valid blocks.
system.l2.tags.avg_refs                     28.342093                       # Average number of references to valid blocks.
system.l2.tags.warmup_cycle                         0                       # Cycle when the warmup percentage was hit.
system.l2.tags.occ_blocks::writebacks       78.503779                       # Average occupied blocks per requestor
system.l2.tags.occ_blocks::cpu.inst       1081.553584                       # Average occupied blocks per requestor
system.l2.tags.occ_blocks::cpu.data       4518.929523                       # Average occupied blocks per requestor
system.l2.tags.occ_percent::writebacks       0.004791                       # Average percentage of cache occupancy
system.l2.tags.occ_percent::cpu.inst         0.066013                       # Average percentage of cache occupancy
system.l2.tags.occ_percent::cpu.data         0.275814                       # Average percentage of cache occupancy
system.l2.tags.occ_percent::total            0.346618                       # Average percentage of cache occupancy
system.l2.tags.occ_task_id_blocks::1024          5716                       # Occupied blocks per task id
system.l2.tags.age_task_id_blocks_1024::4         5716                       # Occupied blocks per task id
system.l2.tags.occ_task_id_percent::1024     0.348877                       # Percentage of cache occupancy per task id
system.l2.tags.tag_accesses                    188284                       # Number of tag accesses
system.l2.tags.data_accesses                   188284                       # Number of data accesses
system.l2.pwrStateResidencyTicks::UNDEFINED 952381570500                       # Cumulative time (in ticks) in various power states
system.l2.WritebackDirty_hits::writebacks        86093                       # number of WritebackDirty hits
system.l2.WritebackDirty_hits::total            86093                       # number of WritebackDirty hits
system.l2.WritebackClean_hits::writebacks         1016                       # number of WritebackClean hits
system.l2.WritebackClean_hits::total             1016                       # number of WritebackClean hits
system.l2.ReadExReq_hits::cpu.data              62669                       # number of ReadExReq hits
system.l2.ReadExReq_hits::total                 62669                       # number of ReadExReq hits
system.l2.ReadCleanReq_hits::cpu.inst             142                       # number of ReadCleanReq hits
system.l2.ReadCleanReq_hits::total                142                       # number of ReadCleanReq hits
system.l2.ReadSharedReq_hits::cpu.data          23419                       # number of ReadSharedReq hits
system.l2.ReadSharedReq_hits::total             23419                       # number of ReadSharedReq hits
system.l2.demand_hits::cpu.inst                   142                       # number of demand (read+write) hits
system.l2.demand_hits::cpu.data                 86088                       # number of demand (read+write) hits
system.l2.demand_hits::total                    86230                       # number of demand (read+write) hits
system.l2.overall_hits::cpu.inst                  142                       # number of overall hits
system.l2.overall_hits::cpu.data                86088                       # number of overall hits
system.l2.overall_hits::total                   86230                       # number of overall hits
system.l2.ReadExReq_misses::cpu.data             3504                       # number of ReadExReq misses
system.l2.ReadExReq_misses::total                3504                       # number of ReadExReq misses
system.l2.ReadCleanReq_misses::cpu.inst          1387                       # number of ReadCleanReq misses
system.l2.ReadCleanReq_misses::total             1387                       # number of ReadCleanReq misses
system.l2.ReadSharedReq_misses::cpu.data         1200                       # number of ReadSharedReq misses
system.l2.ReadSharedReq_misses::total            1200                       # number of ReadSharedReq misses
system.l2.demand_misses::cpu.inst                1387                       # number of demand (read+write) misses
system.l2.demand_misses::cpu.data                4704                       # number of demand (read+write) misses
system.l2.demand_misses::total                   6091                       # number of demand (read+write) misses
system.l2.overall_misses::cpu.inst               1387                       # number of overall misses
system.l2.overall_misses::cpu.data               4704                       # number of overall misses
system.l2.overall_misses::total                  6091                       # number of overall misses
system.l2.ReadExReq_miss_latency::cpu.data    343368500                       # number of ReadExReq miss cycles
system.l2.ReadExReq_miss_latency::total     343368500                       # number of ReadExReq miss cycles
system.l2.ReadCleanReq_miss_latency::cpu.inst    125968000                       # number of ReadCleanReq miss cycles
system.l2.ReadCleanReq_miss_latency::total    125968000                       # number of ReadCleanReq miss cycles
system.l2.ReadSharedReq_miss_latency::cpu.data    116861000                       # number of ReadSharedReq miss cycles
system.l2.ReadSharedReq_miss_latency::total    116861000                       # number of ReadSharedReq miss cycles
system.l2.demand_miss_latency::cpu.inst     125968000                       # number of demand (read+write) miss cycles
system.l2.demand_miss_latency::cpu.data     460229500                       # number of demand (read+write) miss cycles
system.l2.demand_miss_latency::total        586197500                       # number of demand (read+write) miss cycles
system.l2.overall_miss_latency::cpu.inst    125968000                       # number of overall miss cycles
system.l2.overall_miss_latency::cpu.data    460229500                       # number of overall miss cycles
system.l2.overall_miss_latency::total       586197500                       # number of overall miss cycles
system.l2.WritebackDirty_accesses::writebacks        86093                       # number of WritebackDirty accesses(hits+misses)
system.l2.WritebackDirty_accesses::total        86093                       # number of WritebackDirty accesses(hits+misses)
system.l2.WritebackClean_accesses::writebacks         1016                       # number of WritebackClean accesses(hits+misses)
system.l2.WritebackClean_accesses::total         1016                       # number of WritebackClean accesses(hits+misses)
system.l2.ReadExReq_accesses::cpu.data          66173                       # number of ReadExReq accesses(hits+misses)
system.l2.ReadExReq_accesses::total             66173                       # number of ReadExReq accesses(hits+misses)
system.l2.ReadCleanReq_accesses::cpu.inst         1529                       # number of ReadCleanReq accesses(hits+misses)
system.l2.ReadCleanReq_accesses::total           1529                       # number of ReadCleanReq accesses(hits+misses)
system.l2.ReadSharedReq_accesses::cpu.data        24619                       # number of ReadSharedReq accesses(hits+misses)
system.l2.ReadSharedReq_accesses::total         24619                       # number of ReadSharedReq accesses(hits+misses)
system.l2.demand_accesses::cpu.inst              1529                       # number of demand (read+write) accesses
system.l2.demand_accesses::cpu.data             90792                       # number of demand (read+write) accesses
system.l2.demand_accesses::total                92321                       # number of demand (read+write) accesses
system.l2.overall_accesses::cpu.inst             1529                       # number of overall (read+write) accesses
system.l2.overall_accesses::cpu.data            90792                       # number of overall (read+write) accesses
system.l2.overall_accesses::total               92321                       # number of overall (read+write) accesses
system.l2.ReadExReq_miss_rate::cpu.data      0.052952                       # miss rate for ReadExReq accesses
system.l2.ReadExReq_miss_rate::total         0.052952                       # miss rate for ReadExReq accesses
system.l2.ReadCleanReq_miss_rate::cpu.inst     0.907129                       # miss rate for ReadCleanReq accesses
system.l2.ReadCleanReq_miss_rate::total      0.907129                       # miss rate for ReadCleanReq accesses
system.l2.ReadSharedReq_miss_rate::cpu.data     0.048743                       # miss rate for ReadSharedReq accesses
system.l2.ReadSharedReq_miss_rate::total     0.048743                       # miss rate for ReadSharedReq accesses
system.l2.demand_miss_rate::cpu.inst         0.907129                       # miss rate for demand accesses
system.l2.demand_miss_rate::cpu.data         0.051811                       # miss rate for demand accesses
system.l2.demand_miss_rate::total            0.065976                       # miss rate for demand accesses
system.l2.overall_miss_rate::cpu.inst        0.907129                       # miss rate for overall accesses
system.l2.overall_miss_rate::cpu.data        0.051811                       # miss rate for overall accesses
system.l2.overall_miss_rate::total           0.065976                       # miss rate for overall accesses
system.l2.ReadExReq_avg_miss_latency::cpu.data 97993.293379                       # average ReadExReq miss latency
system.l2.ReadExReq_avg_miss_latency::total 97993.293379                       # average ReadExReq miss latency
system.l2.ReadCleanReq_avg_miss_latency::cpu.inst 90820.475847                       # average ReadCleanReq miss latency
system.l2.ReadCleanReq_avg_miss_latency::total 90820.475847                       # average ReadCleanReq miss latency
system.l2.ReadSharedReq_avg_miss_latency::cpu.data 97384.166667                       # average ReadSharedReq miss latency
system.l2.ReadSharedReq_avg_miss_latency::total 97384.166667                       # average ReadSharedReq miss latency
system.l2.demand_avg_miss_latency::cpu.inst 90820.475847                       # average overall miss latency
system.l2.demand_avg_miss_latency::cpu.data 97837.903912                       # average overall miss latency
system.l2.demand_avg_miss_latency::total 96239.944180                       # average overall miss latency
system.l2.overall_avg_miss_latency::cpu.inst 90820.475847                       # average overall miss latency
system.l2.overall_avg_miss_latency::cpu.data 97837.903912                       # average overall miss latency
system.l2.overall_avg_miss_latency::total 96239.944180                       # average overall miss latency
system.l2.blocked_cycles::no_mshrs                  0                       # number of cycles access was blocked
system.l2.blocked_cycles::no_targets                0                       # number of cycles access was blocked
system.l2.blocked::no_mshrs                         0                       # number of cycles access was blocked
system.l2.blocked::no_targets                       0                       # number of cycles access was blocked
system.l2.avg_blocked_cycles::no_mshrs            nan                       # average number of cycles each access was blocked
system.l2.avg_blocked_cycles::no_targets          nan                       # average number of cycles each access was blocked
system.l2.writebacks::writebacks                   13                       # number of writebacks
system.l2.writebacks::total                        13                       # number of writebacks
system.l2.CleanEvict_mshr_misses::writebacks           72                       # number of CleanEvict MSHR misses
system.l2.CleanEvict_mshr_misses::total            72                       # number of CleanEvict MSHR misses
system.l2.ReadExReq_mshr_misses::cpu.data         3504                       # number of ReadExReq MSHR misses
system.l2.ReadExReq_mshr_misses::total           3504                       # number of ReadExReq MSHR misses
system.l2.ReadCleanReq_mshr_misses::cpu.inst         1387                       # number of ReadCleanReq MSHR misses
system.l2.ReadCleanReq_mshr_misses::total         1387                       # number of ReadCleanReq MSHR misses
system.l2.ReadSharedReq_mshr_misses::cpu.data         1200                       # number of ReadSharedReq MSHR misses
system.l2.ReadSharedReq_mshr_misses::total         1200                       # number of ReadSharedReq MSHR misses
system.l2.demand_mshr_misses::cpu.inst           1387                       # number of demand (read+write) MSHR misses
system.l2.demand_mshr_misses::cpu.data           4704                       # number of demand (read+write) MSHR misses
system.l2.demand_mshr_misses::total              6091                       # number of demand (read+write) MSHR misses
system.l2.overall_mshr_misses::cpu.inst          1387                       # number of overall MSHR misses
system.l2.overall_mshr_misses::cpu.data          4704                       # number of overall MSHR misses
system.l2.overall_mshr_misses::total             6091                       # number of overall MSHR misses
system.l2.ReadExReq_mshr_miss_latency::cpu.data    308328500                       # number of ReadExReq MSHR miss cycles
system.l2.ReadExReq_mshr_miss_latency::total    308328500                       # number of ReadExReq MSHR miss cycles
system.l2.ReadCleanReq_mshr_miss_latency::cpu.inst    112098000                       # number of ReadCleanReq MSHR miss cycles
system.l2.ReadCleanReq_mshr_miss_latency::total    112098000                       # number of ReadCleanReq MSHR miss cycles
system.l2.ReadSharedReq_mshr_miss_latency::cpu.data    104861000                       # number of ReadSharedReq MSHR miss cycles
system.l2.ReadSharedReq_mshr_miss_latency::total    104861000                       # number of ReadSharedReq MSHR miss cycles
system.l2.demand_mshr_miss_latency::cpu.inst    112098000                       # number of demand (read+write) MSHR miss cycles
system.l2.demand_mshr_miss_latency::cpu.data    413189500                       # number of demand (read+write) MSHR miss cycles
system.l2.demand_mshr_miss_latency::total    525287500                       # number of demand (read+write) MSHR miss cycles
system.l2.overall_mshr_miss_latency::cpu.inst    112098000                       # number of overall MSHR miss cycles
system.l2.overall_mshr_miss_latency::cpu.data    413189500                       # number of overall MSHR miss cycles
system.l2.overall_mshr_miss_latency::total    525287500                       # number of overall MSHR miss cycles
system.l2.CleanEvict_mshr_miss_rate::writebacks          inf                       # mshr miss rate for CleanEvict accesses
system.l2.CleanEvict_mshr_miss_rate::total          inf                       # mshr miss rate for CleanEvict accesses
system.l2.ReadExReq_mshr_miss_rate::cpu.data     0.052952                       # mshr miss rate for ReadExReq accesses
system.l2.ReadExReq_mshr_miss_rate::total     0.052952                       # mshr miss rate for ReadExReq accesses
system.l2.ReadCleanReq_mshr_miss_rate::cpu.inst     0.907129                       # mshr miss rate for ReadCleanReq accesses
system.l2.ReadCleanReq_mshr_miss_rate::total     0.907129                       # mshr miss rate for ReadCleanReq accesses
system.l2.ReadSharedReq_mshr_miss_rate::cpu.data     0.048743                       # mshr miss rate for ReadSharedReq accesses
system.l2.ReadSharedReq_mshr_miss_rate::total     0.048743                       # mshr miss rate for ReadSharedReq accesses
system.l2.demand_mshr_miss_rate::cpu.inst     0.907129                       # mshr miss rate for demand accesses
system.l2.demand_mshr_miss_rate::cpu.data     0.051811                       # mshr miss rate for demand accesses
system.l2.demand_mshr_miss_rate::total       0.065976                       # mshr miss rate for demand accesses
system.l2.overall_mshr_miss_rate::cpu.inst     0.907129                       # mshr miss rate for overall accesses
system.l2.overall_mshr_miss_rate::cpu.data     0.051811                       # mshr miss rate for overall accesses
system.l2.overall_mshr_miss_rate::total      0.065976                       # mshr miss rate for overall accesses
system.l2.ReadExReq_avg_mshr_miss_latency::cpu.data 87993.293379                       # average ReadExReq mshr miss latency
system.l2.ReadExReq_avg_mshr_miss_latency::total 87993.293379                       # average ReadExReq mshr miss latency
system.l2.ReadCleanReq_avg_mshr_miss_latency::cpu.inst 80820.475847                       # average ReadCleanReq mshr miss latency
system.l2.ReadCleanReq_avg_mshr_miss_latency::total 80820.475847                       # average ReadCleanReq mshr miss latency
system.l2.ReadSharedReq_avg_mshr_miss_latency::cpu.data 87384.166667                       # average ReadSharedReq mshr miss latency
system.l2.ReadSharedReq_avg_mshr_miss_latency::total 87384.166667                       # average ReadSharedReq mshr miss latency
system.l2.demand_avg_mshr_miss_latency::cpu.inst 80820.475847                       # average overall mshr miss latency
system.l2.demand_avg_mshr_miss_latency::cpu.data 87837.903912                       # average overall mshr miss latency
system.l2.demand_avg_mshr_miss_latency::total 86239.944180                       # average overall mshr miss latency
system.l2.overall_avg_mshr_miss_latency::cpu.inst 80820.475847                       # average overall mshr miss latency
system.l2.overall_avg_mshr_miss_latency::cpu.data 87837.903912                       # average overall mshr miss latency
system.l2.overall_avg_mshr_miss_latency::total 86239.944180                       # average overall mshr miss latency
system.membus.snoop_filter.tot_requests          6403                       # Total number of requests made to the snoop filter.
system.membus.snoop_filter.hit_single_requests          312                       # Number of requests hitting in the snoop filter with a single holder of the requested data.
system.membus.snoop_filter.hit_multi_requests            0                       # Number of requests hitting in the snoop filter with multiple (>1) holders of the requested data.
system.membus.snoop_filter.tot_snoops               0                       # Total number of snoops made to the snoop filter.
system.membus.snoop_filter.hit_single_snoops            0                       # Number of snoops hitting in the snoop filter with a single holder of the requested data.
system.membus.snoop_filter.hit_multi_snoops            0                       # Number of snoops hitting in the snoop filter with multiple (>1) holders of the requested data.
system.membus.pwrStateResidencyTicks::UNDEFINED 952381570500                       # Cumulative time (in ticks) in various power states
system.membus.trans_dist::ReadResp               2587                       # Transaction distribution
system.membus.trans_dist::WritebackDirty           13                       # Transaction distribution
system.membus.trans_dist::CleanEvict              299                       # Transaction distribution
system.membus.trans_dist::ReadExReq              3504                       # Transaction distribution
system.membus.trans_dist::ReadExResp             3504                       # Transaction distribution
system.membus.trans_dist::ReadSharedReq          2587                       # Transaction distribution
system.membus.pkt_count_system.l2.mem_side::system.mem_ctrls.port        12494                       # Packet count per connected master and slave (bytes)
system.membus.pkt_count_system.l2.mem_side::total        12494                       # Packet count per connected master and slave (bytes)
system.membus.pkt_count::total                  12494                       # Packet count per connected master and slave (bytes)
system.membus.pkt_size_system.l2.mem_side::system.mem_ctrls.port       390656                       # Cumulative packet size per connected master and slave (bytes)
system.membus.pkt_size_system.l2.mem_side::total       390656                       # Cumulative packet size per connected master and slave (bytes)
system.membus.pkt_size::total                  390656                       # Cumulative packet size per connected master and slave (bytes)
system.membus.snoops                                0                       # Total snoops (count)
system.membus.snoopTraffic                          0                       # Total snoop traffic (bytes)
system.membus.snoop_fanout::samples              6091                       # Request fanout histogram
system.membus.snoop_fanout::mean                    0                       # Request fanout histogram
system.membus.snoop_fanout::stdev                   0                       # Request fanout histogram
system.membus.snoop_fanout::underflows              0      0.00%      0.00% # Request fanout histogram
system.membus.snoop_fanout::0                    6091    100.00%    100.00% # Request fanout histogram
system.membus.snoop_fanout::1                       0      0.00%    100.00% # Request fanout histogram
system.membus.snoop_fanout::overflows               0      0.00%    100.00% # Request fanout histogram
system.membus.snoop_fanout::min_value               0                       # Request fanout histogram
system.membus.snoop_fanout::max_value               0                       # Request fanout histogram
system.membus.snoop_fanout::total                6091                       # Request fanout histogram
system.membus.reqLayer2.occupancy             6743000                       # Layer occupancy (ticks)
system.membus.reqLayer2.utilization               0.0                       # Layer utilization (%)
system.membus.respLayer1.occupancy           32533750                       # Layer occupancy (ticks)
system.membus.respLayer1.utilization              0.0                       # Layer utilization (%)
system.tol2bus.snoop_filter.tot_requests       182082                       # Total number of requests made to the snoop filter.
system.tol2bus.snoop_filter.hit_single_requests        89761                       # Number of requests hitting in the snoop filter with a single holder of the requested data.
system.tol2bus.snoop_filter.hit_multi_requests            1                       # Number of requests hitting in the snoop filter with multiple (>1) holders of the requested data.
system.tol2bus.snoop_filter.tot_snoops            247                       # Total number of snoops made to the snoop filter.
system.tol2bus.snoop_filter.hit_single_snoops          247                       # Number of snoops hitting in the snoop filter with a single holder of the requested data.
system.tol2bus.snoop_filter.hit_multi_snoops            0                       # Number of snoops hitting in the snoop filter with multiple (>1) holders of the requested data.
system.tol2bus.pwrStateResidencyTicks::UNDEFINED 952381570500                       # Cumulative time (in ticks) in various power states
system.tol2bus.trans_dist::ReadResp             26148                       # Transaction distribution
system.tol2bus.trans_dist::WritebackDirty        86106                       # Transaction distribution
system.tol2bus.trans_dist::WritebackClean         1017                       # Transaction distribution
system.tol2bus.trans_dist::CleanEvict            3125                       # Transaction distribution
system.tol2bus.trans_dist::ReadExReq            66173                       # Transaction distribution
system.tol2bus.trans_dist::ReadExResp           66173                       # Transaction distribution
system.tol2bus.trans_dist::ReadCleanReq          1529                       # Transaction distribution
system.tol2bus.trans_dist::ReadSharedReq        24619                       # Transaction distribution
system.tol2bus.pkt_count_system.cpu.icache.mem_side::system.l2.cpu_side         4075                       # Packet count per connected master and slave (bytes)
system.tol2bus.pkt_count_system.cpu.dcache.mem_side::system.l2.cpu_side       270328                       # Packet count per connected master and slave (bytes)
system.tol2bus.pkt_count::total                274403                       # Packet count per connected master and slave (bytes)
system.tol2bus.pkt_size_system.cpu.icache.mem_side::system.l2.cpu_side       162944                       # Cumulative packet size per connected master and slave (bytes)
system.tol2bus.pkt_size_system.cpu.dcache.mem_side::system.l2.cpu_side     11320640                       # Cumulative packet size per connected master and slave (bytes)
system.tol2bus.pkt_size::total               11483584                       # Cumulative packet size per connected master and slave (bytes)
system.tol2bus.snoops                             487                       # Total snoops (count)
system.tol2bus.snoopTraffic                       832                       # Total snoop traffic (bytes)
system.tol2bus.snoop_fanout::samples            92808                       # Request fanout histogram
system.tol2bus.snoop_fanout::mean            0.002672                       # Request fanout histogram
system.tol2bus.snoop_fanout::stdev           0.051624                       # Request fanout histogram
system.tol2bus.snoop_fanout::underflows             0      0.00%      0.00% # Request fanout histogram
system.tol2bus.snoop_fanout::0                  92560     99.73%     99.73% # Request fanout histogram
system.tol2bus.snoop_fanout::1                    248      0.27%    100.00% # Request fanout histogram
system.tol2bus.snoop_fanout::2                      0      0.00%    100.00% # Request fanout histogram
system.tol2bus.snoop_fanout::3                      0      0.00%    100.00% # Request fanout histogram
system.tol2bus.snoop_fanout::4                      0      0.00%    100.00% # Request fanout histogram
system.tol2bus.snoop_fanout::overflows              0      0.00%    100.00% # Request fanout histogram
system.tol2bus.snoop_fanout::min_value              0                       # Request fanout histogram
system.tol2bus.snoop_fanout::max_value              1                       # Request fanout histogram
system.tol2bus.snoop_fanout::total              92808                       # Request fanout histogram
system.tol2bus.reqLayer0.occupancy          178151000                       # Layer occupancy (ticks)
system.tol2bus.reqLayer0.utilization              0.0                       # Layer utilization (%)
system.tol2bus.respLayer0.occupancy           2293500                       # Layer occupancy (ticks)
system.tol2bus.respLayer0.utilization             0.0                       # Layer utilization (%)
system.tol2bus.respLayer1.occupancy         136188000                       # Layer occupancy (ticks)
system.tol2bus.respLayer1.utilization             0.0                       # Layer utilization (%)

---------- End Simulation Statistics   ----------
