
---------- Begin Simulation Statistics ----------
sim_seconds                                  1.734574                       # Number of seconds simulated
sim_ticks                                1734574126500                       # Number of ticks simulated
final_tick                               1734574126500                       # Number of ticks from beginning of simulation (restored from checkpoints and never reset)
sim_freq                                 1000000000000                       # Frequency of simulated ticks
host_inst_rate                                 444535                       # Simulator instruction rate (inst/s)
host_op_rate                                   732030                       # Simulator op (including micro ops) rate (op/s)
host_tick_rate                             1542157212                       # Simulator tick rate (ticks/s)
host_mem_usage                                 665972                       # Number of bytes of host memory used
host_seconds                                  1124.77                       # Real time elapsed on the host
sim_insts                                   500000000                       # Number of instructions simulated
sim_ops                                     823366692                       # Number of ops (including micro ops) simulated
system.voltage_domain.voltage                       1                       # Voltage in Volts
system.clk_domain.clock                          1000                       # Clock period in ticks
system.mem_ctrls.pwrStateResidencyTicks::UNDEFINED 1734574126500                       # Cumulative time (in ticks) in various power states
system.mem_ctrls.bytes_read::cpu.inst          143808                       # Number of bytes read from this memory
system.mem_ctrls.bytes_read::cpu.data       535976320                       # Number of bytes read from this memory
system.mem_ctrls.bytes_read::total          536120128                       # Number of bytes read from this memory
system.mem_ctrls.bytes_inst_read::cpu.inst       143808                       # Number of instructions bytes read from this memory
system.mem_ctrls.bytes_inst_read::total        143808                       # Number of instructions bytes read from this memory
system.mem_ctrls.bytes_written::writebacks    534121216                       # Number of bytes written to this memory
system.mem_ctrls.bytes_written::total       534121216                       # Number of bytes written to this memory
system.mem_ctrls.num_reads::cpu.inst             2247                       # Number of read requests responded to by this memory
system.mem_ctrls.num_reads::cpu.data          8374630                       # Number of read requests responded to by this memory
system.mem_ctrls.num_reads::total             8376877                       # Number of read requests responded to by this memory
system.mem_ctrls.num_writes::writebacks       8345644                       # Number of write requests responded to by this memory
system.mem_ctrls.num_writes::total            8345644                       # Number of write requests responded to by this memory
system.mem_ctrls.bw_read::cpu.inst              82907                       # Total read bandwidth from this memory (bytes/s)
system.mem_ctrls.bw_read::cpu.data          308995915                       # Total read bandwidth from this memory (bytes/s)
system.mem_ctrls.bw_read::total             309078822                       # Total read bandwidth from this memory (bytes/s)
system.mem_ctrls.bw_inst_read::cpu.inst         82907                       # Instruction read bandwidth from this memory (bytes/s)
system.mem_ctrls.bw_inst_read::total            82907                       # Instruction read bandwidth from this memory (bytes/s)
system.mem_ctrls.bw_write::writebacks       307926429                       # Write bandwidth from this memory (bytes/s)
system.mem_ctrls.bw_write::total            307926429                       # Write bandwidth from this memory (bytes/s)
system.mem_ctrls.bw_total::writebacks       307926429                       # Total bandwidth to/from this memory (bytes/s)
system.mem_ctrls.bw_total::cpu.inst             82907                       # Total bandwidth to/from this memory (bytes/s)
system.mem_ctrls.bw_total::cpu.data         308995915                       # Total bandwidth to/from this memory (bytes/s)
system.mem_ctrls.bw_total::total            617005251                       # Total bandwidth to/from this memory (bytes/s)
system.mem_ctrls.readReqs                     8376877                       # Number of read requests accepted
system.mem_ctrls.writeReqs                    8345644                       # Number of write requests accepted
system.mem_ctrls.readBursts                   8376877                       # Number of DRAM read bursts, including those serviced by the write queue
system.mem_ctrls.writeBursts                  8345644                       # Number of DRAM write bursts, including those merged in the write queue
system.mem_ctrls.bytesReadDRAM              536118720                       # Total number of bytes read from DRAM
system.mem_ctrls.bytesReadWrQ                    1408                       # Total number of bytes read from write queue
system.mem_ctrls.bytesWritten               534119616                       # Total number of bytes written to DRAM
system.mem_ctrls.bytesReadSys               536120128                       # Total read bytes from the system interface side
system.mem_ctrls.bytesWrittenSys            534121216                       # Total written bytes from the system interface side
system.mem_ctrls.servicedByWrQ                     22                       # Number of DRAM read bursts serviced by the write queue
system.mem_ctrls.mergedWrBursts                     0                       # Number of DRAM write bursts merged with an existing one
system.mem_ctrls.neitherReadNorWriteReqs            0                       # Number of requests that are neither read nor write
system.mem_ctrls.perBankRdBursts::0            523421                       # Per bank write bursts
system.mem_ctrls.perBankRdBursts::1            523156                       # Per bank write bursts
system.mem_ctrls.perBankRdBursts::2            523294                       # Per bank write bursts
system.mem_ctrls.perBankRdBursts::3            523766                       # Per bank write bursts
system.mem_ctrls.perBankRdBursts::4            523695                       # Per bank write bursts
system.mem_ctrls.perBankRdBursts::5            523702                       # Per bank write bursts
system.mem_ctrls.perBankRdBursts::6            523539                       # Per bank write bursts
system.mem_ctrls.perBankRdBursts::7            523526                       # Per bank write bursts
system.mem_ctrls.perBankRdBursts::8            523087                       # Per bank write bursts
system.mem_ctrls.perBankRdBursts::9            523511                       # Per bank write bursts
system.mem_ctrls.perBankRdBursts::10           523585                       # Per bank write bursts
system.mem_ctrls.perBankRdBursts::11           523836                       # Per bank write bursts
system.mem_ctrls.perBankRdBursts::12           523807                       # Per bank write bursts
system.mem_ctrls.perBankRdBursts::13           523725                       # Per bank write bursts
system.mem_ctrls.perBankRdBursts::14           523538                       # Per bank write bursts
system.mem_ctrls.perBankRdBursts::15           523667                       # Per bank write bursts
system.mem_ctrls.perBankWrBursts::0            521523                       # Per bank write bursts
system.mem_ctrls.perBankWrBursts::1            521306                       # Per bank write bursts
system.mem_ctrls.perBankWrBursts::2            521529                       # Per bank write bursts
system.mem_ctrls.perBankWrBursts::3            521755                       # Per bank write bursts
system.mem_ctrls.perBankWrBursts::4            521608                       # Per bank write bursts
system.mem_ctrls.perBankWrBursts::5            521770                       # Per bank write bursts
system.mem_ctrls.perBankWrBursts::6            521517                       # Per bank write bursts
system.mem_ctrls.perBankWrBursts::7            521494                       # Per bank write bursts
system.mem_ctrls.perBankWrBursts::8            521287                       # Per bank write bursts
system.mem_ctrls.perBankWrBursts::9            521450                       # Per bank write bursts
system.mem_ctrls.perBankWrBursts::10           521616                       # Per bank write bursts
system.mem_ctrls.perBankWrBursts::11           521793                       # Per bank write bursts
system.mem_ctrls.perBankWrBursts::12           521808                       # Per bank write bursts
system.mem_ctrls.perBankWrBursts::13           521813                       # Per bank write bursts
system.mem_ctrls.perBankWrBursts::14           521668                       # Per bank write bursts
system.mem_ctrls.perBankWrBursts::15           521682                       # Per bank write bursts
system.mem_ctrls.numRdRetry                         0                       # Number of times read queue was full causing retry
system.mem_ctrls.numWrRetry                         0                       # Number of times write queue was full causing retry
system.mem_ctrls.totGap                  1734561075500                       # Total gap between requests
system.mem_ctrls.readPktSize::0                     0                       # Read request sizes (log2)
system.mem_ctrls.readPktSize::1                     0                       # Read request sizes (log2)
system.mem_ctrls.readPktSize::2                     0                       # Read request sizes (log2)
system.mem_ctrls.readPktSize::3                     0                       # Read request sizes (log2)
system.mem_ctrls.readPktSize::4                     0                       # Read request sizes (log2)
system.mem_ctrls.readPktSize::5                     0                       # Read request sizes (log2)
system.mem_ctrls.readPktSize::6               8376877                       # Read request sizes (log2)
system.mem_ctrls.writePktSize::0                    0                       # Write request sizes (log2)
system.mem_ctrls.writePktSize::1                    0                       # Write request sizes (log2)
system.mem_ctrls.writePktSize::2                    0                       # Write request sizes (log2)
system.mem_ctrls.writePktSize::3                    0                       # Write request sizes (log2)
system.mem_ctrls.writePktSize::4                    0                       # Write request sizes (log2)
system.mem_ctrls.writePktSize::5                    0                       # Write request sizes (log2)
system.mem_ctrls.writePktSize::6              8345644                       # Write request sizes (log2)
system.mem_ctrls.rdQLenPdf::0                 8376854                       # What read queue length does an incoming req see
system.mem_ctrls.rdQLenPdf::1                       1                       # What read queue length does an incoming req see
system.mem_ctrls.rdQLenPdf::2                       0                       # What read queue length does an incoming req see
system.mem_ctrls.rdQLenPdf::3                       0                       # What read queue length does an incoming req see
system.mem_ctrls.rdQLenPdf::4                       0                       # What read queue length does an incoming req see
system.mem_ctrls.rdQLenPdf::5                       0                       # What read queue length does an incoming req see
system.mem_ctrls.rdQLenPdf::6                       0                       # What read queue length does an incoming req see
system.mem_ctrls.rdQLenPdf::7                       0                       # What read queue length does an incoming req see
system.mem_ctrls.rdQLenPdf::8                       0                       # What read queue length does an incoming req see
system.mem_ctrls.rdQLenPdf::9                       0                       # What read queue length does an incoming req see
system.mem_ctrls.rdQLenPdf::10                      0                       # What read queue length does an incoming req see
system.mem_ctrls.rdQLenPdf::11                      0                       # What read queue length does an incoming req see
system.mem_ctrls.rdQLenPdf::12                      0                       # What read queue length does an incoming req see
system.mem_ctrls.rdQLenPdf::13                      0                       # What read queue length does an incoming req see
system.mem_ctrls.rdQLenPdf::14                      0                       # What read queue length does an incoming req see
system.mem_ctrls.rdQLenPdf::15                      0                       # What read queue length does an incoming req see
system.mem_ctrls.rdQLenPdf::16                      0                       # What read queue length does an incoming req see
system.mem_ctrls.rdQLenPdf::17                      0                       # What read queue length does an incoming req see
system.mem_ctrls.rdQLenPdf::18                      0                       # What read queue length does an incoming req see
system.mem_ctrls.rdQLenPdf::19                      0                       # What read queue length does an incoming req see
system.mem_ctrls.rdQLenPdf::20                      0                       # What read queue length does an incoming req see
system.mem_ctrls.rdQLenPdf::21                      0                       # What read queue length does an incoming req see
system.mem_ctrls.rdQLenPdf::22                      0                       # What read queue length does an incoming req see
system.mem_ctrls.rdQLenPdf::23                      0                       # What read queue length does an incoming req see
system.mem_ctrls.rdQLenPdf::24                      0                       # What read queue length does an incoming req see
system.mem_ctrls.rdQLenPdf::25                      0                       # What read queue length does an incoming req see
system.mem_ctrls.rdQLenPdf::26                      0                       # What read queue length does an incoming req see
system.mem_ctrls.rdQLenPdf::27                      0                       # What read queue length does an incoming req see
system.mem_ctrls.rdQLenPdf::28                      0                       # What read queue length does an incoming req see
system.mem_ctrls.rdQLenPdf::29                      0                       # What read queue length does an incoming req see
system.mem_ctrls.rdQLenPdf::30                      0                       # What read queue length does an incoming req see
system.mem_ctrls.rdQLenPdf::31                      0                       # What read queue length does an incoming req see
system.mem_ctrls.wrQLenPdf::0                       1                       # What write queue length does an incoming req see
system.mem_ctrls.wrQLenPdf::1                       1                       # What write queue length does an incoming req see
system.mem_ctrls.wrQLenPdf::2                       1                       # What write queue length does an incoming req see
system.mem_ctrls.wrQLenPdf::3                       1                       # What write queue length does an incoming req see
system.mem_ctrls.wrQLenPdf::4                       1                       # What write queue length does an incoming req see
system.mem_ctrls.wrQLenPdf::5                       1                       # What write queue length does an incoming req see
system.mem_ctrls.wrQLenPdf::6                       1                       # What write queue length does an incoming req see
system.mem_ctrls.wrQLenPdf::7                       1                       # What write queue length does an incoming req see
system.mem_ctrls.wrQLenPdf::8                       1                       # What write queue length does an incoming req see
system.mem_ctrls.wrQLenPdf::9                       1                       # What write queue length does an incoming req see
system.mem_ctrls.wrQLenPdf::10                      1                       # What write queue length does an incoming req see
system.mem_ctrls.wrQLenPdf::11                      1                       # What write queue length does an incoming req see
system.mem_ctrls.wrQLenPdf::12                      1                       # What write queue length does an incoming req see
system.mem_ctrls.wrQLenPdf::13                      1                       # What write queue length does an incoming req see
system.mem_ctrls.wrQLenPdf::14                      1                       # What write queue length does an incoming req see
system.mem_ctrls.wrQLenPdf::15                   4976                       # What write queue length does an incoming req see
system.mem_ctrls.wrQLenPdf::16                   5026                       # What write queue length does an incoming req see
system.mem_ctrls.wrQLenPdf::17                 520934                       # What write queue length does an incoming req see
system.mem_ctrls.wrQLenPdf::18                 520976                       # What write queue length does an incoming req see
system.mem_ctrls.wrQLenPdf::19                 520977                       # What write queue length does an incoming req see
system.mem_ctrls.wrQLenPdf::20                 520976                       # What write queue length does an incoming req see
system.mem_ctrls.wrQLenPdf::21                 520976                       # What write queue length does an incoming req see
system.mem_ctrls.wrQLenPdf::22                 520978                       # What write queue length does an incoming req see
system.mem_ctrls.wrQLenPdf::23                 520976                       # What write queue length does an incoming req see
system.mem_ctrls.wrQLenPdf::24                 520978                       # What write queue length does an incoming req see
system.mem_ctrls.wrQLenPdf::25                 520975                       # What write queue length does an incoming req see
system.mem_ctrls.wrQLenPdf::26                 520979                       # What write queue length does an incoming req see
system.mem_ctrls.wrQLenPdf::27                 520978                       # What write queue length does an incoming req see
system.mem_ctrls.wrQLenPdf::28                 520982                       # What write queue length does an incoming req see
system.mem_ctrls.wrQLenPdf::29                 521006                       # What write queue length does an incoming req see
system.mem_ctrls.wrQLenPdf::30                 520985                       # What write queue length does an incoming req see
system.mem_ctrls.wrQLenPdf::31                 520976                       # What write queue length does an incoming req see
system.mem_ctrls.wrQLenPdf::32                 520975                       # What write queue length does an incoming req see
system.mem_ctrls.wrQLenPdf::33                      0                       # What write queue length does an incoming req see
system.mem_ctrls.wrQLenPdf::34                      0                       # What write queue length does an incoming req see
system.mem_ctrls.wrQLenPdf::35                      0                       # What write queue length does an incoming req see
system.mem_ctrls.wrQLenPdf::36                      0                       # What write queue length does an incoming req see
system.mem_ctrls.wrQLenPdf::37                      0                       # What write queue length does an incoming req see
system.mem_ctrls.wrQLenPdf::38                      0                       # What write queue length does an incoming req see
system.mem_ctrls.wrQLenPdf::39                      0                       # What write queue length does an incoming req see
system.mem_ctrls.wrQLenPdf::40                      0                       # What write queue length does an incoming req see
system.mem_ctrls.wrQLenPdf::41                      0                       # What write queue length does an incoming req see
system.mem_ctrls.wrQLenPdf::42                      0                       # What write queue length does an incoming req see
system.mem_ctrls.wrQLenPdf::43                      0                       # What write queue length does an incoming req see
system.mem_ctrls.wrQLenPdf::44                      0                       # What write queue length does an incoming req see
system.mem_ctrls.wrQLenPdf::45                      0                       # What write queue length does an incoming req see
system.mem_ctrls.wrQLenPdf::46                      0                       # What write queue length does an incoming req see
system.mem_ctrls.wrQLenPdf::47                      0                       # What write queue length does an incoming req see
system.mem_ctrls.wrQLenPdf::48                      0                       # What write queue length does an incoming req see
system.mem_ctrls.wrQLenPdf::49                      0                       # What write queue length does an incoming req see
system.mem_ctrls.wrQLenPdf::50                      0                       # What write queue length does an incoming req see
system.mem_ctrls.wrQLenPdf::51                      0                       # What write queue length does an incoming req see
system.mem_ctrls.wrQLenPdf::52                      0                       # What write queue length does an incoming req see
system.mem_ctrls.wrQLenPdf::53                      0                       # What write queue length does an incoming req see
system.mem_ctrls.wrQLenPdf::54                      0                       # What write queue length does an incoming req see
system.mem_ctrls.wrQLenPdf::55                      0                       # What write queue length does an incoming req see
system.mem_ctrls.wrQLenPdf::56                      0                       # What write queue length does an incoming req see
system.mem_ctrls.wrQLenPdf::57                      0                       # What write queue length does an incoming req see
system.mem_ctrls.wrQLenPdf::58                      0                       # What write queue length does an incoming req see
system.mem_ctrls.wrQLenPdf::59                      0                       # What write queue length does an incoming req see
system.mem_ctrls.wrQLenPdf::60                      0                       # What write queue length does an incoming req see
system.mem_ctrls.wrQLenPdf::61                      0                       # What write queue length does an incoming req see
system.mem_ctrls.wrQLenPdf::62                      0                       # What write queue length does an incoming req see
system.mem_ctrls.wrQLenPdf::63                      0                       # What write queue length does an incoming req see
system.mem_ctrls.bytesPerActivate::samples      1425803                       # Bytes accessed per row activation
system.mem_ctrls.bytesPerActivate::mean    750.621465                       # Bytes accessed per row activation
system.mem_ctrls.bytesPerActivate::gmean   566.745352                       # Bytes accessed per row activation
system.mem_ctrls.bytesPerActivate::stdev   368.442630                       # Bytes accessed per row activation
system.mem_ctrls.bytesPerActivate::0-127       170442     11.95%     11.95% # Bytes accessed per row activation
system.mem_ctrls.bytesPerActivate::128-255        68274      4.79%     16.74% # Bytes accessed per row activation
system.mem_ctrls.bytesPerActivate::256-383        79894      5.60%     22.35% # Bytes accessed per row activation
system.mem_ctrls.bytesPerActivate::384-511        56843      3.99%     26.33% # Bytes accessed per row activation
system.mem_ctrls.bytesPerActivate::512-639        72034      5.05%     31.38% # Bytes accessed per row activation
system.mem_ctrls.bytesPerActivate::640-767        58073      4.07%     35.46% # Bytes accessed per row activation
system.mem_ctrls.bytesPerActivate::768-895        68898      4.83%     40.29% # Bytes accessed per row activation
system.mem_ctrls.bytesPerActivate::896-1023        34122      2.39%     42.68% # Bytes accessed per row activation
system.mem_ctrls.bytesPerActivate::1024-1151       817223     57.32%    100.00% # Bytes accessed per row activation
system.mem_ctrls.bytesPerActivate::total      1425803                       # Bytes accessed per row activation
system.mem_ctrls.rdPerTurnAround::samples       520975                       # Reads before turning the bus around for writes
system.mem_ctrls.rdPerTurnAround::mean      16.079171                       # Reads before turning the bus around for writes
system.mem_ctrls.rdPerTurnAround::gmean     16.041753                       # Reads before turning the bus around for writes
system.mem_ctrls.rdPerTurnAround::stdev     16.809422                       # Reads before turning the bus around for writes
system.mem_ctrls.rdPerTurnAround::0-511        520971    100.00%    100.00% # Reads before turning the bus around for writes
system.mem_ctrls.rdPerTurnAround::512-1023            3      0.00%    100.00% # Reads before turning the bus around for writes
system.mem_ctrls.rdPerTurnAround::11776-12287            1      0.00%    100.00% # Reads before turning the bus around for writes
system.mem_ctrls.rdPerTurnAround::total        520975                       # Reads before turning the bus around for writes
system.mem_ctrls.wrPerTurnAround::samples       520975                       # Writes before turning the bus around for reads
system.mem_ctrls.wrPerTurnAround::mean      16.019231                       # Writes before turning the bus around for reads
system.mem_ctrls.wrPerTurnAround::gmean     16.018131                       # Writes before turning the bus around for reads
system.mem_ctrls.wrPerTurnAround::stdev      0.195218                       # Writes before turning the bus around for reads
system.mem_ctrls.wrPerTurnAround::16           515950     99.04%     99.04% # Writes before turning the bus around for reads
system.mem_ctrls.wrPerTurnAround::17               50      0.01%     99.05% # Writes before turning the bus around for reads
system.mem_ctrls.wrPerTurnAround::18             4957      0.95%    100.00% # Writes before turning the bus around for reads
system.mem_ctrls.wrPerTurnAround::19               17      0.00%    100.00% # Writes before turning the bus around for reads
system.mem_ctrls.wrPerTurnAround::20                1      0.00%    100.00% # Writes before turning the bus around for reads
system.mem_ctrls.wrPerTurnAround::total        520975                       # Writes before turning the bus around for reads
system.mem_ctrls.totQLat                 164582725500                       # Total ticks spent queuing
system.mem_ctrls.totMemAccLat            321648756750                       # Total ticks spent from burst creation until serviced by the DRAM
system.mem_ctrls.totBusLat                41884275000                       # Total ticks spent in databus transfers
system.mem_ctrls.avgQLat                     19647.32                       # Average queueing delay per DRAM burst
system.mem_ctrls.avgBusLat                    5000.00                       # Average bus latency per DRAM burst
system.mem_ctrls.avgMemAccLat                38397.32                       # Average memory access latency per DRAM burst
system.mem_ctrls.avgRdBW                       309.08                       # Average DRAM read bandwidth in MiByte/s
system.mem_ctrls.avgWrBW                       307.93                       # Average achieved write bandwidth in MiByte/s
system.mem_ctrls.avgRdBWSys                    309.08                       # Average system read bandwidth in MiByte/s
system.mem_ctrls.avgWrBWSys                    307.93                       # Average system write bandwidth in MiByte/s
system.mem_ctrls.peakBW                      12800.00                       # Theoretical peak bandwidth in MiByte/s
system.mem_ctrls.busUtil                         4.82                       # Data bus utilization in percentage
system.mem_ctrls.busUtilRead                     2.41                       # Data bus utilization in percentage for reads
system.mem_ctrls.busUtilWrite                    2.41                       # Data bus utilization in percentage for writes
system.mem_ctrls.avgRdQLen                       1.00                       # Average read queue length when enqueuing
system.mem_ctrls.avgWrQLen                      25.24                       # Average write queue length when enqueuing
system.mem_ctrls.readRowHits                  7606911                       # Number of row buffer hits during reads
system.mem_ctrls.writeRowHits                 7689760                       # Number of row buffer hits during writes
system.mem_ctrls.readRowHitRate                 90.81                       # Row buffer hit rate for reads
system.mem_ctrls.writeRowHitRate                92.14                       # Row buffer hit rate for writes
system.mem_ctrls.avgGap                     103726.05                       # Average gap between requests
system.mem_ctrls.pageHitRate                    91.47                       # Row buffer hit rate, read and write combined
system.mem_ctrls_0.actEnergy               5089577640                       # Energy for activate commands per rank (pJ)
system.mem_ctrls_0.preEnergy               2705174670                       # Energy for precharge commands per rank (pJ)
system.mem_ctrls_0.readEnergy             29903026860                       # Energy for read commands per rank (pJ)
system.mem_ctrls_0.writeEnergy            21780460440                       # Energy for write commands per rank (pJ)
system.mem_ctrls_0.refreshEnergy         84302793120.000015                       # Energy for refresh commands per rank (pJ)
system.mem_ctrls_0.actBackEnergy          97180994610                       # Energy for active background per rank (pJ)
system.mem_ctrls_0.preBackEnergy           5876808000                       # Energy for precharge background per rank (pJ)
system.mem_ctrls_0.actPowerDownEnergy    201004906590                       # Energy for active power-down per rank (pJ)
system.mem_ctrls_0.prePowerDownEnergy     86008339200                       # Energy for precharge power-down per rank (pJ)
system.mem_ctrls_0.selfRefreshEnergy     215246072550                       # Energy for self refresh per rank (pJ)
system.mem_ctrls_0.totalEnergy           749121331530                       # Total energy per rank (pJ)
system.mem_ctrls_0.averagePower            431.876226                       # Core power per rank (mW)
system.mem_ctrls_0.totalIdleTime         1506045721000                       # Total Idle time Per DRAM Rank
system.mem_ctrls_0.memoryStateTime::IDLE   7625132000                       # Time in different power states
system.mem_ctrls_0.memoryStateTime::REF   35811398000                       # Time in different power states
system.mem_ctrls_0.memoryStateTime::SREF 841322156750                       # Time in different power states
system.mem_ctrls_0.memoryStateTime::PRE_PDN 223976854750                       # Time in different power states
system.mem_ctrls_0.memoryStateTime::ACT  185076181250                       # Time in different power states
system.mem_ctrls_0.memoryStateTime::ACT_PDN 440762403750                       # Time in different power states
system.mem_ctrls_1.actEnergy               5090655780                       # Energy for activate commands per rank (pJ)
system.mem_ctrls_1.preEnergy               2705747715                       # Energy for precharge commands per rank (pJ)
system.mem_ctrls_1.readEnergy             29907717840                       # Energy for read commands per rank (pJ)
system.mem_ctrls_1.writeEnergy            21783670740                       # Energy for write commands per rank (pJ)
system.mem_ctrls_1.refreshEnergy         83975804640.000015                       # Energy for refresh commands per rank (pJ)
system.mem_ctrls_1.actBackEnergy          97131854340                       # Energy for active background per rank (pJ)
system.mem_ctrls_1.preBackEnergy           5870478720                       # Energy for precharge background per rank (pJ)
system.mem_ctrls_1.actPowerDownEnergy    200409437280                       # Energy for active power-down per rank (pJ)
system.mem_ctrls_1.prePowerDownEnergy     85467711840                       # Energy for precharge power-down per rank (pJ)
system.mem_ctrls_1.selfRefreshEnergy     215828428260                       # Energy for self refresh per rank (pJ)
system.mem_ctrls_1.totalEnergy           748197393975                       # Total energy per rank (pJ)
system.mem_ctrls_1.averagePower            431.343566                       # Core power per rank (mW)
system.mem_ctrls_1.totalIdleTime         1506186548000                       # Total Idle time Per DRAM Rank
system.mem_ctrls_1.memoryStateTime::IDLE   7601155500                       # Time in different power states
system.mem_ctrls_1.memoryStateTime::REF   35668758000                       # Time in different power states
system.mem_ctrls_1.memoryStateTime::SREF 844154076000                       # Time in different power states
system.mem_ctrls_1.memoryStateTime::PRE_PDN 222569823750                       # Time in different power states
system.mem_ctrls_1.memoryStateTime::ACT  185112358000                       # Time in different power states
system.mem_ctrls_1.memoryStateTime::ACT_PDN 439467955250                       # Time in different power states
system.pwrStateResidencyTicks::UNDEFINED 1734574126500                       # Cumulative time (in ticks) in various power states
system.cpu_voltage_domain.voltage                   1                       # Voltage in Volts
system.cpu_clk_domain.clock                       500                       # Clock period in ticks
system.cpu.dtb.walker.pwrStateResidencyTicks::UNDEFINED 1734574126500                       # Cumulative time (in ticks) in various power states
system.cpu.apic_clk_domain.clock                 8000                       # Clock period in ticks
system.cpu.interrupts.pwrStateResidencyTicks::UNDEFINED 1734574126500                       # Cumulative time (in ticks) in various power states
system.cpu.itb.walker.pwrStateResidencyTicks::UNDEFINED 1734574126500                       # Cumulative time (in ticks) in various power states
system.cpu.workload.num_syscalls                  196                       # Number of system calls
system.cpu.pwrStateResidencyTicks::ON    1734574126500                       # Cumulative time (in ticks) in various power states
system.cpu.numCycles                       3469148253                       # number of cpu cycles simulated
system.cpu.numWorkItemsStarted                      0                       # number of work items this cpu started
system.cpu.numWorkItemsCompleted                    0                       # number of work items this cpu completed
system.cpu.committedInsts                   500000000                       # Number of instructions committed
system.cpu.committedOps                     823366692                       # Number of ops (including micro ops) committed
system.cpu.num_int_alu_accesses             821415783                       # Number of integer alu accesses
system.cpu.num_fp_alu_accesses               66619246                       # Number of float alu accesses
system.cpu.num_func_calls                     5652773                       # number of times a function call or return occured
system.cpu.num_conditional_control_insts     57208853                       # number of instructions that are conditional controls
system.cpu.num_int_insts                    821415783                       # number of integer instructions
system.cpu.num_fp_insts                      66619246                       # number of float instructions
system.cpu.num_int_register_reads          1637209917                       # number of times the integer registers were read
system.cpu.num_int_register_writes          639871082                       # number of times the integer registers were written
system.cpu.num_fp_register_reads             66766836                       # number of times the floating registers were read
system.cpu.num_fp_register_writes              208042                       # number of times the floating registers were written
system.cpu.num_cc_register_reads            319714243                       # number of times the CC registers were read
system.cpu.num_cc_register_writes           287984022                       # number of times the CC registers were written
system.cpu.num_mem_refs                     271673939                       # number of memory refs
system.cpu.num_load_insts                   157213791                       # Number of load instructions
system.cpu.num_store_insts                  114460148                       # Number of store instructions
system.cpu.num_idle_cycles                          0                       # Number of idle cycles
system.cpu.num_busy_cycles                 3469148253                       # Number of busy cycles
system.cpu.not_idle_fraction                        1                       # Percentage of non-idle cycles
system.cpu.idle_fraction                            0                       # Percentage of idle cycles
system.cpu.Branches                          69678400                       # Number of branches fetched
system.cpu.op_class::No_OpClass                202234      0.02%      0.02% # Class of executed instruction
system.cpu.op_class::IntAlu                 550028817     66.80%     66.83% # Class of executed instruction
system.cpu.op_class::IntMult                   125092      0.02%     66.84% # Class of executed instruction
system.cpu.op_class::IntDiv                   1153479      0.14%     66.98% # Class of executed instruction
system.cpu.op_class::FloatAdd                  183131      0.02%     67.00% # Class of executed instruction
system.cpu.op_class::FloatCmp                       0      0.00%     67.00% # Class of executed instruction
system.cpu.op_class::FloatCvt                       0      0.00%     67.00% # Class of executed instruction
system.cpu.op_class::FloatMult                      0      0.00%     67.00% # Class of executed instruction
system.cpu.op_class::FloatDiv                       0      0.00%     67.00% # Class of executed instruction
system.cpu.op_class::FloatSqrt                      0      0.00%     67.00% # Class of executed instruction
system.cpu.op_class::SimdAdd                        0      0.00%     67.00% # Class of executed instruction
system.cpu.op_class::SimdAddAcc                     0      0.00%     67.00% # Class of executed instruction
system.cpu.op_class::SimdAlu                        0      0.00%     67.00% # Class of executed instruction
system.cpu.op_class::SimdCmp                        0      0.00%     67.00% # Class of executed instruction
system.cpu.op_class::SimdCvt                        0      0.00%     67.00% # Class of executed instruction
system.cpu.op_class::SimdMisc                       0      0.00%     67.00% # Class of executed instruction
system.cpu.op_class::SimdMult                       0      0.00%     67.00% # Class of executed instruction
system.cpu.op_class::SimdMultAcc                    0      0.00%     67.00% # Class of executed instruction
system.cpu.op_class::SimdShift                      0      0.00%     67.00% # Class of executed instruction
system.cpu.op_class::SimdShiftAcc                   0      0.00%     67.00% # Class of executed instruction
system.cpu.op_class::SimdSqrt                       0      0.00%     67.00% # Class of executed instruction
system.cpu.op_class::SimdFloatAdd                   0      0.00%     67.00% # Class of executed instruction
system.cpu.op_class::SimdFloatAlu                   0      0.00%     67.00% # Class of executed instruction
system.cpu.op_class::SimdFloatCmp                   0      0.00%     67.00% # Class of executed instruction
system.cpu.op_class::SimdFloatCvt                   0      0.00%     67.00% # Class of executed instruction
system.cpu.op_class::SimdFloatDiv                   0      0.00%     67.00% # Class of executed instruction
system.cpu.op_class::SimdFloatMisc                  0      0.00%     67.00% # Class of executed instruction
system.cpu.op_class::SimdFloatMult                  0      0.00%     67.00% # Class of executed instruction
system.cpu.op_class::SimdFloatMultAcc               0      0.00%     67.00% # Class of executed instruction
system.cpu.op_class::SimdFloatSqrt                  0      0.00%     67.00% # Class of executed instruction
system.cpu.op_class::MemRead                157213791     19.09%     86.10% # Class of executed instruction
system.cpu.op_class::MemWrite               114460148     13.90%    100.00% # Class of executed instruction
system.cpu.op_class::IprAccess                      0      0.00%    100.00% # Class of executed instruction
system.cpu.op_class::InstPrefetch                   0      0.00%    100.00% # Class of executed instruction
system.cpu.op_class::total                  823366692                       # Class of executed instruction
system.cpu.dcache.tags.pwrStateResidencyTicks::UNDEFINED 1734574126500                       # Cumulative time (in ticks) in various power states
system.cpu.dcache.tags.replacements           8555630                       # number of replacements
system.cpu.dcache.tags.tagsinuse          1023.711751                       # Cycle average of tags in use
system.cpu.dcache.tags.total_refs           263117889                       # Total number of references to valid blocks.
system.cpu.dcache.tags.sampled_refs           8556654                       # Sample count of references to valid blocks.
system.cpu.dcache.tags.avg_refs             30.750091                       # Average number of references to valid blocks.
system.cpu.dcache.tags.warmup_cycle        5629363500                       # Cycle when the warmup percentage was hit.
system.cpu.dcache.tags.occ_blocks::cpu.data  1023.711751                       # Average occupied blocks per requestor
system.cpu.dcache.tags.occ_percent::cpu.data     0.999719                       # Average percentage of cache occupancy
system.cpu.dcache.tags.occ_percent::total     0.999719                       # Average percentage of cache occupancy
system.cpu.dcache.tags.occ_task_id_blocks::1024         1024                       # Occupied blocks per task id
system.cpu.dcache.tags.age_task_id_blocks_1024::0            1                       # Occupied blocks per task id
system.cpu.dcache.tags.age_task_id_blocks_1024::1           38                       # Occupied blocks per task id
system.cpu.dcache.tags.age_task_id_blocks_1024::2          147                       # Occupied blocks per task id
system.cpu.dcache.tags.age_task_id_blocks_1024::3          513                       # Occupied blocks per task id
system.cpu.dcache.tags.age_task_id_blocks_1024::4          325                       # Occupied blocks per task id
system.cpu.dcache.tags.occ_task_id_percent::1024            1                       # Percentage of cache occupancy per task id
system.cpu.dcache.tags.tag_accesses         551905740                       # Number of tag accesses
system.cpu.dcache.tags.data_accesses        551905740                       # Number of data accesses
system.cpu.dcache.pwrStateResidencyTicks::UNDEFINED 1734574126500                       # Cumulative time (in ticks) in various power states
system.cpu.dcache.ReadReq_hits::cpu.data    157023057                       # number of ReadReq hits
system.cpu.dcache.ReadReq_hits::total       157023057                       # number of ReadReq hits
system.cpu.dcache.WriteReq_hits::cpu.data    106094832                       # number of WriteReq hits
system.cpu.dcache.WriteReq_hits::total      106094832                       # number of WriteReq hits
system.cpu.dcache.demand_hits::cpu.data     263117889                       # number of demand (read+write) hits
system.cpu.dcache.demand_hits::total        263117889                       # number of demand (read+write) hits
system.cpu.dcache.overall_hits::cpu.data    263117889                       # number of overall hits
system.cpu.dcache.overall_hits::total       263117889                       # number of overall hits
system.cpu.dcache.ReadReq_misses::cpu.data       191326                       # number of ReadReq misses
system.cpu.dcache.ReadReq_misses::total        191326                       # number of ReadReq misses
system.cpu.dcache.WriteReq_misses::cpu.data      8365328                       # number of WriteReq misses
system.cpu.dcache.WriteReq_misses::total      8365328                       # number of WriteReq misses
system.cpu.dcache.demand_misses::cpu.data      8556654                       # number of demand (read+write) misses
system.cpu.dcache.demand_misses::total        8556654                       # number of demand (read+write) misses
system.cpu.dcache.overall_misses::cpu.data      8556654                       # number of overall misses
system.cpu.dcache.overall_misses::total       8556654                       # number of overall misses
system.cpu.dcache.ReadReq_miss_latency::cpu.data  28045038000                       # number of ReadReq miss cycles
system.cpu.dcache.ReadReq_miss_latency::total  28045038000                       # number of ReadReq miss cycles
system.cpu.dcache.WriteReq_miss_latency::cpu.data 741865085500                       # number of WriteReq miss cycles
system.cpu.dcache.WriteReq_miss_latency::total 741865085500                       # number of WriteReq miss cycles
system.cpu.dcache.demand_miss_latency::cpu.data 769910123500                       # number of demand (read+write) miss cycles
system.cpu.dcache.demand_miss_latency::total 769910123500                       # number of demand (read+write) miss cycles
system.cpu.dcache.overall_miss_latency::cpu.data 769910123500                       # number of overall miss cycles
system.cpu.dcache.overall_miss_latency::total 769910123500                       # number of overall miss cycles
system.cpu.dcache.ReadReq_accesses::cpu.data    157214383                       # number of ReadReq accesses(hits+misses)
system.cpu.dcache.ReadReq_accesses::total    157214383                       # number of ReadReq accesses(hits+misses)
system.cpu.dcache.WriteReq_accesses::cpu.data    114460160                       # number of WriteReq accesses(hits+misses)
system.cpu.dcache.WriteReq_accesses::total    114460160                       # number of WriteReq accesses(hits+misses)
system.cpu.dcache.demand_accesses::cpu.data    271674543                       # number of demand (read+write) accesses
system.cpu.dcache.demand_accesses::total    271674543                       # number of demand (read+write) accesses
system.cpu.dcache.overall_accesses::cpu.data    271674543                       # number of overall (read+write) accesses
system.cpu.dcache.overall_accesses::total    271674543                       # number of overall (read+write) accesses
system.cpu.dcache.ReadReq_miss_rate::cpu.data     0.001217                       # miss rate for ReadReq accesses
system.cpu.dcache.ReadReq_miss_rate::total     0.001217                       # miss rate for ReadReq accesses
system.cpu.dcache.WriteReq_miss_rate::cpu.data     0.073085                       # miss rate for WriteReq accesses
system.cpu.dcache.WriteReq_miss_rate::total     0.073085                       # miss rate for WriteReq accesses
system.cpu.dcache.demand_miss_rate::cpu.data     0.031496                       # miss rate for demand accesses
system.cpu.dcache.demand_miss_rate::total     0.031496                       # miss rate for demand accesses
system.cpu.dcache.overall_miss_rate::cpu.data     0.031496                       # miss rate for overall accesses
system.cpu.dcache.overall_miss_rate::total     0.031496                       # miss rate for overall accesses
system.cpu.dcache.ReadReq_avg_miss_latency::cpu.data 146582.471802                       # average ReadReq miss latency
system.cpu.dcache.ReadReq_avg_miss_latency::total 146582.471802                       # average ReadReq miss latency
system.cpu.dcache.WriteReq_avg_miss_latency::cpu.data 88683.323057                       # average WriteReq miss latency
system.cpu.dcache.WriteReq_avg_miss_latency::total 88683.323057                       # average WriteReq miss latency
system.cpu.dcache.demand_avg_miss_latency::cpu.data 89977.942722                       # average overall miss latency
system.cpu.dcache.demand_avg_miss_latency::total 89977.942722                       # average overall miss latency
system.cpu.dcache.overall_avg_miss_latency::cpu.data 89977.942722                       # average overall miss latency
system.cpu.dcache.overall_avg_miss_latency::total 89977.942722                       # average overall miss latency
system.cpu.dcache.blocked_cycles::no_mshrs            0                       # number of cycles access was blocked
system.cpu.dcache.blocked_cycles::no_targets            0                       # number of cycles access was blocked
system.cpu.dcache.blocked::no_mshrs                 0                       # number of cycles access was blocked
system.cpu.dcache.blocked::no_targets               0                       # number of cycles access was blocked
system.cpu.dcache.avg_blocked_cycles::no_mshrs          nan                       # average number of cycles each access was blocked
system.cpu.dcache.avg_blocked_cycles::no_targets          nan                       # average number of cycles each access was blocked
system.cpu.dcache.writebacks::writebacks      8468469                       # number of writebacks
system.cpu.dcache.writebacks::total           8468469                       # number of writebacks
system.cpu.dcache.ReadReq_mshr_misses::cpu.data       191326                       # number of ReadReq MSHR misses
system.cpu.dcache.ReadReq_mshr_misses::total       191326                       # number of ReadReq MSHR misses
system.cpu.dcache.WriteReq_mshr_misses::cpu.data      8365328                       # number of WriteReq MSHR misses
system.cpu.dcache.WriteReq_mshr_misses::total      8365328                       # number of WriteReq MSHR misses
system.cpu.dcache.demand_mshr_misses::cpu.data      8556654                       # number of demand (read+write) MSHR misses
system.cpu.dcache.demand_mshr_misses::total      8556654                       # number of demand (read+write) MSHR misses
system.cpu.dcache.overall_mshr_misses::cpu.data      8556654                       # number of overall MSHR misses
system.cpu.dcache.overall_mshr_misses::total      8556654                       # number of overall MSHR misses
system.cpu.dcache.ReadReq_mshr_miss_latency::cpu.data  27853712000                       # number of ReadReq MSHR miss cycles
system.cpu.dcache.ReadReq_mshr_miss_latency::total  27853712000                       # number of ReadReq MSHR miss cycles
system.cpu.dcache.WriteReq_mshr_miss_latency::cpu.data 733499757500                       # number of WriteReq MSHR miss cycles
system.cpu.dcache.WriteReq_mshr_miss_latency::total 733499757500                       # number of WriteReq MSHR miss cycles
system.cpu.dcache.demand_mshr_miss_latency::cpu.data 761353469500                       # number of demand (read+write) MSHR miss cycles
system.cpu.dcache.demand_mshr_miss_latency::total 761353469500                       # number of demand (read+write) MSHR miss cycles
system.cpu.dcache.overall_mshr_miss_latency::cpu.data 761353469500                       # number of overall MSHR miss cycles
system.cpu.dcache.overall_mshr_miss_latency::total 761353469500                       # number of overall MSHR miss cycles
system.cpu.dcache.ReadReq_mshr_miss_rate::cpu.data     0.001217                       # mshr miss rate for ReadReq accesses
system.cpu.dcache.ReadReq_mshr_miss_rate::total     0.001217                       # mshr miss rate for ReadReq accesses
system.cpu.dcache.WriteReq_mshr_miss_rate::cpu.data     0.073085                       # mshr miss rate for WriteReq accesses
system.cpu.dcache.WriteReq_mshr_miss_rate::total     0.073085                       # mshr miss rate for WriteReq accesses
system.cpu.dcache.demand_mshr_miss_rate::cpu.data     0.031496                       # mshr miss rate for demand accesses
system.cpu.dcache.demand_mshr_miss_rate::total     0.031496                       # mshr miss rate for demand accesses
system.cpu.dcache.overall_mshr_miss_rate::cpu.data     0.031496                       # mshr miss rate for overall accesses
system.cpu.dcache.overall_mshr_miss_rate::total     0.031496                       # mshr miss rate for overall accesses
system.cpu.dcache.ReadReq_avg_mshr_miss_latency::cpu.data 145582.471802                       # average ReadReq mshr miss latency
system.cpu.dcache.ReadReq_avg_mshr_miss_latency::total 145582.471802                       # average ReadReq mshr miss latency
system.cpu.dcache.WriteReq_avg_mshr_miss_latency::cpu.data 87683.323057                       # average WriteReq mshr miss latency
system.cpu.dcache.WriteReq_avg_mshr_miss_latency::total 87683.323057                       # average WriteReq mshr miss latency
system.cpu.dcache.demand_avg_mshr_miss_latency::cpu.data 88977.942722                       # average overall mshr miss latency
system.cpu.dcache.demand_avg_mshr_miss_latency::total 88977.942722                       # average overall mshr miss latency
system.cpu.dcache.overall_avg_mshr_miss_latency::cpu.data 88977.942722                       # average overall mshr miss latency
system.cpu.dcache.overall_avg_mshr_miss_latency::total 88977.942722                       # average overall mshr miss latency
system.cpu.dtb_walker_cache.tags.pwrStateResidencyTicks::UNDEFINED 1734574126500                       # Cumulative time (in ticks) in various power states
system.cpu.dtb_walker_cache.tags.replacements            0                       # number of replacements
system.cpu.dtb_walker_cache.tags.tagsinuse            0                       # Cycle average of tags in use
system.cpu.dtb_walker_cache.tags.total_refs            0                       # Total number of references to valid blocks.
system.cpu.dtb_walker_cache.tags.sampled_refs            0                       # Sample count of references to valid blocks.
system.cpu.dtb_walker_cache.tags.avg_refs          nan                       # Average number of references to valid blocks.
system.cpu.dtb_walker_cache.tags.warmup_cycle            0                       # Cycle when the warmup percentage was hit.
system.cpu.dtb_walker_cache.tags.tag_accesses            0                       # Number of tag accesses
system.cpu.dtb_walker_cache.tags.data_accesses            0                       # Number of data accesses
system.cpu.dtb_walker_cache.pwrStateResidencyTicks::UNDEFINED 1734574126500                       # Cumulative time (in ticks) in various power states
system.cpu.dtb_walker_cache.blocked_cycles::no_mshrs            0                       # number of cycles access was blocked
system.cpu.dtb_walker_cache.blocked_cycles::no_targets            0                       # number of cycles access was blocked
system.cpu.dtb_walker_cache.blocked::no_mshrs            0                       # number of cycles access was blocked
system.cpu.dtb_walker_cache.blocked::no_targets            0                       # number of cycles access was blocked
system.cpu.dtb_walker_cache.avg_blocked_cycles::no_mshrs          nan                       # average number of cycles each access was blocked
system.cpu.dtb_walker_cache.avg_blocked_cycles::no_targets          nan                       # average number of cycles each access was blocked
system.cpu.icache.tags.pwrStateResidencyTicks::UNDEFINED 1734574126500                       # Cumulative time (in ticks) in various power states
system.cpu.icache.tags.replacements           2158923                       # number of replacements
system.cpu.icache.tags.tagsinuse           455.726917                       # Cycle average of tags in use
system.cpu.icache.tags.total_refs           673194222                       # Total number of references to valid blocks.
system.cpu.icache.tags.sampled_refs           2159435                       # Sample count of references to valid blocks.
system.cpu.icache.tags.avg_refs            311.745536                       # Average number of references to valid blocks.
system.cpu.icache.tags.warmup_cycle      896913347500                       # Cycle when the warmup percentage was hit.
system.cpu.icache.tags.occ_blocks::cpu.inst   455.726917                       # Average occupied blocks per requestor
system.cpu.icache.tags.occ_percent::cpu.inst     0.890092                       # Average percentage of cache occupancy
system.cpu.icache.tags.occ_percent::total     0.890092                       # Average percentage of cache occupancy
system.cpu.icache.tags.occ_task_id_blocks::1024          512                       # Occupied blocks per task id
system.cpu.icache.tags.age_task_id_blocks_1024::0           14                       # Occupied blocks per task id
system.cpu.icache.tags.age_task_id_blocks_1024::1           99                       # Occupied blocks per task id
system.cpu.icache.tags.age_task_id_blocks_1024::2           86                       # Occupied blocks per task id
system.cpu.icache.tags.age_task_id_blocks_1024::3           36                       # Occupied blocks per task id
system.cpu.icache.tags.age_task_id_blocks_1024::4          277                       # Occupied blocks per task id
system.cpu.icache.tags.occ_task_id_percent::1024            1                       # Percentage of cache occupancy per task id
system.cpu.icache.tags.tag_accesses        1352866749                       # Number of tag accesses
system.cpu.icache.tags.data_accesses       1352866749                       # Number of data accesses
system.cpu.icache.pwrStateResidencyTicks::UNDEFINED 1734574126500                       # Cumulative time (in ticks) in various power states
system.cpu.icache.ReadReq_hits::cpu.inst    673194222                       # number of ReadReq hits
system.cpu.icache.ReadReq_hits::total       673194222                       # number of ReadReq hits
system.cpu.icache.demand_hits::cpu.inst     673194222                       # number of demand (read+write) hits
system.cpu.icache.demand_hits::total        673194222                       # number of demand (read+write) hits
system.cpu.icache.overall_hits::cpu.inst    673194222                       # number of overall hits
system.cpu.icache.overall_hits::total       673194222                       # number of overall hits
system.cpu.icache.ReadReq_misses::cpu.inst      2159435                       # number of ReadReq misses
system.cpu.icache.ReadReq_misses::total       2159435                       # number of ReadReq misses
system.cpu.icache.demand_misses::cpu.inst      2159435                       # number of demand (read+write) misses
system.cpu.icache.demand_misses::total        2159435                       # number of demand (read+write) misses
system.cpu.icache.overall_misses::cpu.inst      2159435                       # number of overall misses
system.cpu.icache.overall_misses::total       2159435                       # number of overall misses
system.cpu.icache.ReadReq_miss_latency::cpu.inst  28352318000                       # number of ReadReq miss cycles
system.cpu.icache.ReadReq_miss_latency::total  28352318000                       # number of ReadReq miss cycles
system.cpu.icache.demand_miss_latency::cpu.inst  28352318000                       # number of demand (read+write) miss cycles
system.cpu.icache.demand_miss_latency::total  28352318000                       # number of demand (read+write) miss cycles
system.cpu.icache.overall_miss_latency::cpu.inst  28352318000                       # number of overall miss cycles
system.cpu.icache.overall_miss_latency::total  28352318000                       # number of overall miss cycles
system.cpu.icache.ReadReq_accesses::cpu.inst    675353657                       # number of ReadReq accesses(hits+misses)
system.cpu.icache.ReadReq_accesses::total    675353657                       # number of ReadReq accesses(hits+misses)
system.cpu.icache.demand_accesses::cpu.inst    675353657                       # number of demand (read+write) accesses
system.cpu.icache.demand_accesses::total    675353657                       # number of demand (read+write) accesses
system.cpu.icache.overall_accesses::cpu.inst    675353657                       # number of overall (read+write) accesses
system.cpu.icache.overall_accesses::total    675353657                       # number of overall (read+write) accesses
system.cpu.icache.ReadReq_miss_rate::cpu.inst     0.003197                       # miss rate for ReadReq accesses
system.cpu.icache.ReadReq_miss_rate::total     0.003197                       # miss rate for ReadReq accesses
system.cpu.icache.demand_miss_rate::cpu.inst     0.003197                       # miss rate for demand accesses
system.cpu.icache.demand_miss_rate::total     0.003197                       # miss rate for demand accesses
system.cpu.icache.overall_miss_rate::cpu.inst     0.003197                       # miss rate for overall accesses
system.cpu.icache.overall_miss_rate::total     0.003197                       # miss rate for overall accesses
system.cpu.icache.ReadReq_avg_miss_latency::cpu.inst 13129.507487                       # average ReadReq miss latency
system.cpu.icache.ReadReq_avg_miss_latency::total 13129.507487                       # average ReadReq miss latency
system.cpu.icache.demand_avg_miss_latency::cpu.inst 13129.507487                       # average overall miss latency
system.cpu.icache.demand_avg_miss_latency::total 13129.507487                       # average overall miss latency
system.cpu.icache.overall_avg_miss_latency::cpu.inst 13129.507487                       # average overall miss latency
system.cpu.icache.overall_avg_miss_latency::total 13129.507487                       # average overall miss latency
system.cpu.icache.blocked_cycles::no_mshrs            0                       # number of cycles access was blocked
system.cpu.icache.blocked_cycles::no_targets            0                       # number of cycles access was blocked
system.cpu.icache.blocked::no_mshrs                 0                       # number of cycles access was blocked
system.cpu.icache.blocked::no_targets               0                       # number of cycles access was blocked
system.cpu.icache.avg_blocked_cycles::no_mshrs          nan                       # average number of cycles each access was blocked
system.cpu.icache.avg_blocked_cycles::no_targets          nan                       # average number of cycles each access was blocked
system.cpu.icache.writebacks::writebacks      2158923                       # number of writebacks
system.cpu.icache.writebacks::total           2158923                       # number of writebacks
system.cpu.icache.ReadReq_mshr_misses::cpu.inst      2159435                       # number of ReadReq MSHR misses
system.cpu.icache.ReadReq_mshr_misses::total      2159435                       # number of ReadReq MSHR misses
system.cpu.icache.demand_mshr_misses::cpu.inst      2159435                       # number of demand (read+write) MSHR misses
system.cpu.icache.demand_mshr_misses::total      2159435                       # number of demand (read+write) MSHR misses
system.cpu.icache.overall_mshr_misses::cpu.inst      2159435                       # number of overall MSHR misses
system.cpu.icache.overall_mshr_misses::total      2159435                       # number of overall MSHR misses
system.cpu.icache.ReadReq_mshr_miss_latency::cpu.inst  26192883000                       # number of ReadReq MSHR miss cycles
system.cpu.icache.ReadReq_mshr_miss_latency::total  26192883000                       # number of ReadReq MSHR miss cycles
system.cpu.icache.demand_mshr_miss_latency::cpu.inst  26192883000                       # number of demand (read+write) MSHR miss cycles
system.cpu.icache.demand_mshr_miss_latency::total  26192883000                       # number of demand (read+write) MSHR miss cycles
system.cpu.icache.overall_mshr_miss_latency::cpu.inst  26192883000                       # number of overall MSHR miss cycles
system.cpu.icache.overall_mshr_miss_latency::total  26192883000                       # number of overall MSHR miss cycles
system.cpu.icache.ReadReq_mshr_miss_rate::cpu.inst     0.003197                       # mshr miss rate for ReadReq accesses
system.cpu.icache.ReadReq_mshr_miss_rate::total     0.003197                       # mshr miss rate for ReadReq accesses
system.cpu.icache.demand_mshr_miss_rate::cpu.inst     0.003197                       # mshr miss rate for demand accesses
system.cpu.icache.demand_mshr_miss_rate::total     0.003197                       # mshr miss rate for demand accesses
system.cpu.icache.overall_mshr_miss_rate::cpu.inst     0.003197                       # mshr miss rate for overall accesses
system.cpu.icache.overall_mshr_miss_rate::total     0.003197                       # mshr miss rate for overall accesses
system.cpu.icache.ReadReq_avg_mshr_miss_latency::cpu.inst 12129.507487                       # average ReadReq mshr miss latency
system.cpu.icache.ReadReq_avg_mshr_miss_latency::total 12129.507487                       # average ReadReq mshr miss latency
system.cpu.icache.demand_avg_mshr_miss_latency::cpu.inst 12129.507487                       # average overall mshr miss latency
system.cpu.icache.demand_avg_mshr_miss_latency::total 12129.507487                       # average overall mshr miss latency
system.cpu.icache.overall_avg_mshr_miss_latency::cpu.inst 12129.507487                       # average overall mshr miss latency
system.cpu.icache.overall_avg_mshr_miss_latency::total 12129.507487                       # average overall mshr miss latency
system.cpu.itb_walker_cache.tags.pwrStateResidencyTicks::UNDEFINED 1734574126500                       # Cumulative time (in ticks) in various power states
system.cpu.itb_walker_cache.tags.replacements            0                       # number of replacements
system.cpu.itb_walker_cache.tags.tagsinuse            0                       # Cycle average of tags in use
system.cpu.itb_walker_cache.tags.total_refs            0                       # Total number of references to valid blocks.
system.cpu.itb_walker_cache.tags.sampled_refs            0                       # Sample count of references to valid blocks.
system.cpu.itb_walker_cache.tags.avg_refs          nan                       # Average number of references to valid blocks.
system.cpu.itb_walker_cache.tags.warmup_cycle            0                       # Cycle when the warmup percentage was hit.
system.cpu.itb_walker_cache.tags.tag_accesses            0                       # Number of tag accesses
system.cpu.itb_walker_cache.tags.data_accesses            0                       # Number of data accesses
system.cpu.itb_walker_cache.pwrStateResidencyTicks::UNDEFINED 1734574126500                       # Cumulative time (in ticks) in various power states
system.cpu.itb_walker_cache.blocked_cycles::no_mshrs            0                       # number of cycles access was blocked
system.cpu.itb_walker_cache.blocked_cycles::no_targets            0                       # number of cycles access was blocked
system.cpu.itb_walker_cache.blocked::no_mshrs            0                       # number of cycles access was blocked
system.cpu.itb_walker_cache.blocked::no_targets            0                       # number of cycles access was blocked
system.cpu.itb_walker_cache.avg_blocked_cycles::no_mshrs          nan                       # average number of cycles each access was blocked
system.cpu.itb_walker_cache.avg_blocked_cycles::no_targets          nan                       # average number of cycles each access was blocked
system.l2.tags.pwrStateResidencyTicks::UNDEFINED 1734574126500                       # Cumulative time (in ticks) in various power states
system.l2.tags.replacements                   8361799                       # number of replacements
system.l2.tags.tagsinuse                 16314.167774                       # Cycle average of tags in use
system.l2.tags.total_refs                    13052334                       # Total number of references to valid blocks.
system.l2.tags.sampled_refs                   8378183                       # Sample count of references to valid blocks.
system.l2.tags.avg_refs                      1.557896                       # Average number of references to valid blocks.
system.l2.tags.warmup_cycle                9416816000                       # Cycle when the warmup percentage was hit.
system.l2.tags.occ_blocks::writebacks      151.727002                       # Average occupied blocks per requestor
system.l2.tags.occ_blocks::cpu.inst        317.485860                       # Average occupied blocks per requestor
system.l2.tags.occ_blocks::cpu.data      15844.954912                       # Average occupied blocks per requestor
system.l2.tags.occ_percent::writebacks       0.009261                       # Average percentage of cache occupancy
system.l2.tags.occ_percent::cpu.inst         0.019378                       # Average percentage of cache occupancy
system.l2.tags.occ_percent::cpu.data         0.967099                       # Average percentage of cache occupancy
system.l2.tags.occ_percent::total            0.995738                       # Average percentage of cache occupancy
system.l2.tags.occ_task_id_blocks::1024         16384                       # Occupied blocks per task id
system.l2.tags.age_task_id_blocks_1024::1            6                       # Occupied blocks per task id
system.l2.tags.age_task_id_blocks_1024::2           83                       # Occupied blocks per task id
system.l2.tags.age_task_id_blocks_1024::3          867                       # Occupied blocks per task id
system.l2.tags.age_task_id_blocks_1024::4        15428                       # Occupied blocks per task id
system.l2.tags.occ_task_id_percent::1024            1                       # Percentage of cache occupancy per task id
system.l2.tags.tag_accesses                  94100747                       # Number of tag accesses
system.l2.tags.data_accesses                 94100747                       # Number of data accesses
system.l2.pwrStateResidencyTicks::UNDEFINED 1734574126500                       # Cumulative time (in ticks) in various power states
system.l2.WritebackDirty_hits::writebacks      8468469                       # number of WritebackDirty hits
system.l2.WritebackDirty_hits::total          8468469                       # number of WritebackDirty hits
system.l2.WritebackClean_hits::writebacks      2158923                       # number of WritebackClean hits
system.l2.WritebackClean_hits::total          2158923                       # number of WritebackClean hits
system.l2.ReadExReq_hits::cpu.data              70570                       # number of ReadExReq hits
system.l2.ReadExReq_hits::total                 70570                       # number of ReadExReq hits
system.l2.ReadCleanReq_hits::cpu.inst         2157188                       # number of ReadCleanReq hits
system.l2.ReadCleanReq_hits::total            2157188                       # number of ReadCleanReq hits
system.l2.ReadSharedReq_hits::cpu.data         111454                       # number of ReadSharedReq hits
system.l2.ReadSharedReq_hits::total            111454                       # number of ReadSharedReq hits
system.l2.demand_hits::cpu.inst               2157188                       # number of demand (read+write) hits
system.l2.demand_hits::cpu.data                182024                       # number of demand (read+write) hits
system.l2.demand_hits::total                  2339212                       # number of demand (read+write) hits
system.l2.overall_hits::cpu.inst              2157188                       # number of overall hits
system.l2.overall_hits::cpu.data               182024                       # number of overall hits
system.l2.overall_hits::total                 2339212                       # number of overall hits
system.l2.ReadExReq_misses::cpu.data          8294758                       # number of ReadExReq misses
system.l2.ReadExReq_misses::total             8294758                       # number of ReadExReq misses
system.l2.ReadCleanReq_misses::cpu.inst          2247                       # number of ReadCleanReq misses
system.l2.ReadCleanReq_misses::total             2247                       # number of ReadCleanReq misses
system.l2.ReadSharedReq_misses::cpu.data        79872                       # number of ReadSharedReq misses
system.l2.ReadSharedReq_misses::total           79872                       # number of ReadSharedReq misses
system.l2.demand_misses::cpu.inst                2247                       # number of demand (read+write) misses
system.l2.demand_misses::cpu.data             8374630                       # number of demand (read+write) misses
system.l2.demand_misses::total                8376877                       # number of demand (read+write) misses
system.l2.overall_misses::cpu.inst               2247                       # number of overall misses
system.l2.overall_misses::cpu.data            8374630                       # number of overall misses
system.l2.overall_misses::total               8376877                       # number of overall misses
system.l2.ReadExReq_miss_latency::cpu.data 720210546500                       # number of ReadExReq miss cycles
system.l2.ReadExReq_miss_latency::total  720210546500                       # number of ReadExReq miss cycles
system.l2.ReadCleanReq_miss_latency::cpu.inst    277954000                       # number of ReadCleanReq miss cycles
system.l2.ReadCleanReq_miss_latency::total    277954000                       # number of ReadCleanReq miss cycles
system.l2.ReadSharedReq_miss_latency::cpu.data  26395731500                       # number of ReadSharedReq miss cycles
system.l2.ReadSharedReq_miss_latency::total  26395731500                       # number of ReadSharedReq miss cycles
system.l2.demand_miss_latency::cpu.inst     277954000                       # number of demand (read+write) miss cycles
system.l2.demand_miss_latency::cpu.data  746606278000                       # number of demand (read+write) miss cycles
system.l2.demand_miss_latency::total     746884232000                       # number of demand (read+write) miss cycles
system.l2.overall_miss_latency::cpu.inst    277954000                       # number of overall miss cycles
system.l2.overall_miss_latency::cpu.data 746606278000                       # number of overall miss cycles
system.l2.overall_miss_latency::total    746884232000                       # number of overall miss cycles
system.l2.WritebackDirty_accesses::writebacks      8468469                       # number of WritebackDirty accesses(hits+misses)
system.l2.WritebackDirty_accesses::total      8468469                       # number of WritebackDirty accesses(hits+misses)
system.l2.WritebackClean_accesses::writebacks      2158923                       # number of WritebackClean accesses(hits+misses)
system.l2.WritebackClean_accesses::total      2158923                       # number of WritebackClean accesses(hits+misses)
system.l2.ReadExReq_accesses::cpu.data        8365328                       # number of ReadExReq accesses(hits+misses)
system.l2.ReadExReq_accesses::total           8365328                       # number of ReadExReq accesses(hits+misses)
system.l2.ReadCleanReq_accesses::cpu.inst      2159435                       # number of ReadCleanReq accesses(hits+misses)
system.l2.ReadCleanReq_accesses::total        2159435                       # number of ReadCleanReq accesses(hits+misses)
system.l2.ReadSharedReq_accesses::cpu.data       191326                       # number of ReadSharedReq accesses(hits+misses)
system.l2.ReadSharedReq_accesses::total        191326                       # number of ReadSharedReq accesses(hits+misses)
system.l2.demand_accesses::cpu.inst           2159435                       # number of demand (read+write) accesses
system.l2.demand_accesses::cpu.data           8556654                       # number of demand (read+write) accesses
system.l2.demand_accesses::total             10716089                       # number of demand (read+write) accesses
system.l2.overall_accesses::cpu.inst          2159435                       # number of overall (read+write) accesses
system.l2.overall_accesses::cpu.data          8556654                       # number of overall (read+write) accesses
system.l2.overall_accesses::total            10716089                       # number of overall (read+write) accesses
system.l2.ReadExReq_miss_rate::cpu.data      0.991564                       # miss rate for ReadExReq accesses
system.l2.ReadExReq_miss_rate::total         0.991564                       # miss rate for ReadExReq accesses
system.l2.ReadCleanReq_miss_rate::cpu.inst     0.001041                       # miss rate for ReadCleanReq accesses
system.l2.ReadCleanReq_miss_rate::total      0.001041                       # miss rate for ReadCleanReq accesses
system.l2.ReadSharedReq_miss_rate::cpu.data     0.417465                       # miss rate for ReadSharedReq accesses
system.l2.ReadSharedReq_miss_rate::total     0.417465                       # miss rate for ReadSharedReq accesses
system.l2.demand_miss_rate::cpu.inst         0.001041                       # miss rate for demand accesses
system.l2.demand_miss_rate::cpu.data         0.978727                       # miss rate for demand accesses
system.l2.demand_miss_rate::total            0.781710                       # miss rate for demand accesses
system.l2.overall_miss_rate::cpu.inst        0.001041                       # miss rate for overall accesses
system.l2.overall_miss_rate::cpu.data        0.978727                       # miss rate for overall accesses
system.l2.overall_miss_rate::total           0.781710                       # miss rate for overall accesses
system.l2.ReadExReq_avg_miss_latency::cpu.data 86827.192125                       # average ReadExReq miss latency
system.l2.ReadExReq_avg_miss_latency::total 86827.192125                       # average ReadExReq miss latency
system.l2.ReadCleanReq_avg_miss_latency::cpu.inst 123700.044504                       # average ReadCleanReq miss latency
system.l2.ReadCleanReq_avg_miss_latency::total 123700.044504                       # average ReadCleanReq miss latency
system.l2.ReadSharedReq_avg_miss_latency::cpu.data 330475.404397                       # average ReadSharedReq miss latency
system.l2.ReadSharedReq_avg_miss_latency::total 330475.404397                       # average ReadSharedReq miss latency
system.l2.demand_avg_miss_latency::cpu.inst 123700.044504                       # average overall miss latency
system.l2.demand_avg_miss_latency::cpu.data 89150.956878                       # average overall miss latency
system.l2.demand_avg_miss_latency::total 89160.224270                       # average overall miss latency
system.l2.overall_avg_miss_latency::cpu.inst 123700.044504                       # average overall miss latency
system.l2.overall_avg_miss_latency::cpu.data 89150.956878                       # average overall miss latency
system.l2.overall_avg_miss_latency::total 89160.224270                       # average overall miss latency
system.l2.blocked_cycles::no_mshrs                  0                       # number of cycles access was blocked
system.l2.blocked_cycles::no_targets                0                       # number of cycles access was blocked
system.l2.blocked::no_mshrs                         0                       # number of cycles access was blocked
system.l2.blocked::no_targets                       0                       # number of cycles access was blocked
system.l2.avg_blocked_cycles::no_mshrs            nan                       # average number of cycles each access was blocked
system.l2.avg_blocked_cycles::no_targets          nan                       # average number of cycles each access was blocked
system.l2.writebacks::writebacks              8345644                       # number of writebacks
system.l2.writebacks::total                   8345644                       # number of writebacks
system.l2.CleanEvict_mshr_misses::writebacks          124                       # number of CleanEvict MSHR misses
system.l2.CleanEvict_mshr_misses::total           124                       # number of CleanEvict MSHR misses
system.l2.ReadExReq_mshr_misses::cpu.data      8294758                       # number of ReadExReq MSHR misses
system.l2.ReadExReq_mshr_misses::total        8294758                       # number of ReadExReq MSHR misses
system.l2.ReadCleanReq_mshr_misses::cpu.inst         2247                       # number of ReadCleanReq MSHR misses
system.l2.ReadCleanReq_mshr_misses::total         2247                       # number of ReadCleanReq MSHR misses
system.l2.ReadSharedReq_mshr_misses::cpu.data        79872                       # number of ReadSharedReq MSHR misses
system.l2.ReadSharedReq_mshr_misses::total        79872                       # number of ReadSharedReq MSHR misses
system.l2.demand_mshr_misses::cpu.inst           2247                       # number of demand (read+write) MSHR misses
system.l2.demand_mshr_misses::cpu.data        8374630                       # number of demand (read+write) MSHR misses
system.l2.demand_mshr_misses::total           8376877                       # number of demand (read+write) MSHR misses
system.l2.overall_mshr_misses::cpu.inst          2247                       # number of overall MSHR misses
system.l2.overall_mshr_misses::cpu.data       8374630                       # number of overall MSHR misses
system.l2.overall_mshr_misses::total          8376877                       # number of overall MSHR misses
system.l2.ReadExReq_mshr_miss_latency::cpu.data 637262966500                       # number of ReadExReq MSHR miss cycles
system.l2.ReadExReq_mshr_miss_latency::total 637262966500                       # number of ReadExReq MSHR miss cycles
system.l2.ReadCleanReq_mshr_miss_latency::cpu.inst    255484000                       # number of ReadCleanReq MSHR miss cycles
system.l2.ReadCleanReq_mshr_miss_latency::total    255484000                       # number of ReadCleanReq MSHR miss cycles
system.l2.ReadSharedReq_mshr_miss_latency::cpu.data  25597011500                       # number of ReadSharedReq MSHR miss cycles
system.l2.ReadSharedReq_mshr_miss_latency::total  25597011500                       # number of ReadSharedReq MSHR miss cycles
system.l2.demand_mshr_miss_latency::cpu.inst    255484000                       # number of demand (read+write) MSHR miss cycles
system.l2.demand_mshr_miss_latency::cpu.data 662859978000                       # number of demand (read+write) MSHR miss cycles
system.l2.demand_mshr_miss_latency::total 663115462000                       # number of demand (read+write) MSHR miss cycles
system.l2.overall_mshr_miss_latency::cpu.inst    255484000                       # number of overall MSHR miss cycles
system.l2.overall_mshr_miss_latency::cpu.data 662859978000                       # number of overall MSHR miss cycles
system.l2.overall_mshr_miss_latency::total 663115462000                       # number of overall MSHR miss cycles
system.l2.CleanEvict_mshr_miss_rate::writebacks          inf                       # mshr miss rate for CleanEvict accesses
system.l2.CleanEvict_mshr_miss_rate::total          inf                       # mshr miss rate for CleanEvict accesses
system.l2.ReadExReq_mshr_miss_rate::cpu.data     0.991564                       # mshr miss rate for ReadExReq accesses
system.l2.ReadExReq_mshr_miss_rate::total     0.991564                       # mshr miss rate for ReadExReq accesses
system.l2.ReadCleanReq_mshr_miss_rate::cpu.inst     0.001041                       # mshr miss rate for ReadCleanReq accesses
system.l2.ReadCleanReq_mshr_miss_rate::total     0.001041                       # mshr miss rate for ReadCleanReq accesses
system.l2.ReadSharedReq_mshr_miss_rate::cpu.data     0.417465                       # mshr miss rate for ReadSharedReq accesses
system.l2.ReadSharedReq_mshr_miss_rate::total     0.417465                       # mshr miss rate for ReadSharedReq accesses
system.l2.demand_mshr_miss_rate::cpu.inst     0.001041                       # mshr miss rate for demand accesses
system.l2.demand_mshr_miss_rate::cpu.data     0.978727                       # mshr miss rate for demand accesses
system.l2.demand_mshr_miss_rate::total       0.781710                       # mshr miss rate for demand accesses
system.l2.overall_mshr_miss_rate::cpu.inst     0.001041                       # mshr miss rate for overall accesses
system.l2.overall_mshr_miss_rate::cpu.data     0.978727                       # mshr miss rate for overall accesses
system.l2.overall_mshr_miss_rate::total      0.781710                       # mshr miss rate for overall accesses
system.l2.ReadExReq_avg_mshr_miss_latency::cpu.data 76827.192125                       # average ReadExReq mshr miss latency
system.l2.ReadExReq_avg_mshr_miss_latency::total 76827.192125                       # average ReadExReq mshr miss latency
system.l2.ReadCleanReq_avg_mshr_miss_latency::cpu.inst 113700.044504                       # average ReadCleanReq mshr miss latency
system.l2.ReadCleanReq_avg_mshr_miss_latency::total 113700.044504                       # average ReadCleanReq mshr miss latency
system.l2.ReadSharedReq_avg_mshr_miss_latency::cpu.data 320475.404397                       # average ReadSharedReq mshr miss latency
system.l2.ReadSharedReq_avg_mshr_miss_latency::total 320475.404397                       # average ReadSharedReq mshr miss latency
system.l2.demand_avg_mshr_miss_latency::cpu.inst 113700.044504                       # average overall mshr miss latency
system.l2.demand_avg_mshr_miss_latency::cpu.data 79150.956878                       # average overall mshr miss latency
system.l2.demand_avg_mshr_miss_latency::total 79160.224270                       # average overall mshr miss latency
system.l2.overall_avg_mshr_miss_latency::cpu.inst 113700.044504                       # average overall mshr miss latency
system.l2.overall_avg_mshr_miss_latency::cpu.data 79150.956878                       # average overall mshr miss latency
system.l2.overall_avg_mshr_miss_latency::total 79160.224270                       # average overall mshr miss latency
system.membus.snoop_filter.tot_requests      16737195                       # Total number of requests made to the snoop filter.
system.membus.snoop_filter.hit_single_requests      8360318                       # Number of requests hitting in the snoop filter with a single holder of the requested data.
system.membus.snoop_filter.hit_multi_requests            0                       # Number of requests hitting in the snoop filter with multiple (>1) holders of the requested data.
system.membus.snoop_filter.tot_snoops               0                       # Total number of snoops made to the snoop filter.
system.membus.snoop_filter.hit_single_snoops            0                       # Number of snoops hitting in the snoop filter with a single holder of the requested data.
system.membus.snoop_filter.hit_multi_snoops            0                       # Number of snoops hitting in the snoop filter with multiple (>1) holders of the requested data.
system.membus.pwrStateResidencyTicks::UNDEFINED 1734574126500                       # Cumulative time (in ticks) in various power states
system.membus.trans_dist::ReadResp              82119                       # Transaction distribution
system.membus.trans_dist::WritebackDirty      8345644                       # Transaction distribution
system.membus.trans_dist::CleanEvict            14674                       # Transaction distribution
system.membus.trans_dist::ReadExReq           8294758                       # Transaction distribution
system.membus.trans_dist::ReadExResp          8294758                       # Transaction distribution
system.membus.trans_dist::ReadSharedReq         82119                       # Transaction distribution
system.membus.pkt_count_system.l2.mem_side::system.mem_ctrls.port     25114072                       # Packet count per connected master and slave (bytes)
system.membus.pkt_count_system.l2.mem_side::total     25114072                       # Packet count per connected master and slave (bytes)
system.membus.pkt_count::total               25114072                       # Packet count per connected master and slave (bytes)
system.membus.pkt_size_system.l2.mem_side::system.mem_ctrls.port   1070241344                       # Cumulative packet size per connected master and slave (bytes)
system.membus.pkt_size_system.l2.mem_side::total   1070241344                       # Cumulative packet size per connected master and slave (bytes)
system.membus.pkt_size::total              1070241344                       # Cumulative packet size per connected master and slave (bytes)
system.membus.snoops                                0                       # Total snoops (count)
system.membus.snoopTraffic                          0                       # Total snoop traffic (bytes)
system.membus.snoop_fanout::samples           8376877                       # Request fanout histogram
system.membus.snoop_fanout::mean                    0                       # Request fanout histogram
system.membus.snoop_fanout::stdev                   0                       # Request fanout histogram
system.membus.snoop_fanout::underflows              0      0.00%      0.00% # Request fanout histogram
system.membus.snoop_fanout::0                 8376877    100.00%    100.00% # Request fanout histogram
system.membus.snoop_fanout::1                       0      0.00%    100.00% # Request fanout histogram
system.membus.snoop_fanout::overflows               0      0.00%    100.00% # Request fanout histogram
system.membus.snoop_fanout::min_value               0                       # Request fanout histogram
system.membus.snoop_fanout::max_value               0                       # Request fanout histogram
system.membus.snoop_fanout::total             8376877                       # Request fanout histogram
system.membus.reqLayer2.occupancy         50129866000                       # Layer occupancy (ticks)
system.membus.reqLayer2.utilization               2.9                       # Layer utilization (%)
system.membus.respLayer1.occupancy        44077419500                       # Layer occupancy (ticks)
system.membus.respLayer1.utilization              2.5                       # Layer utilization (%)
system.tol2bus.snoop_filter.tot_requests     21430642                       # Total number of requests made to the snoop filter.
system.tol2bus.snoop_filter.hit_single_requests     10714553                       # Number of requests hitting in the snoop filter with a single holder of the requested data.
system.tol2bus.snoop_filter.hit_multi_requests            1                       # Number of requests hitting in the snoop filter with multiple (>1) holders of the requested data.
system.tol2bus.snoop_filter.tot_snoops           1605                       # Total number of snoops made to the snoop filter.
system.tol2bus.snoop_filter.hit_single_snoops         1605                       # Number of snoops hitting in the snoop filter with a single holder of the requested data.
system.tol2bus.snoop_filter.hit_multi_snoops            0                       # Number of snoops hitting in the snoop filter with multiple (>1) holders of the requested data.
system.tol2bus.pwrStateResidencyTicks::UNDEFINED 1734574126500                       # Cumulative time (in ticks) in various power states
system.tol2bus.trans_dist::ReadResp           2350761                       # Transaction distribution
system.tol2bus.trans_dist::WritebackDirty     16814113                       # Transaction distribution
system.tol2bus.trans_dist::WritebackClean      2158923                       # Transaction distribution
system.tol2bus.trans_dist::CleanEvict          103316                       # Transaction distribution
system.tol2bus.trans_dist::ReadExReq          8365328                       # Transaction distribution
system.tol2bus.trans_dist::ReadExResp         8365328                       # Transaction distribution
system.tol2bus.trans_dist::ReadCleanReq       2159435                       # Transaction distribution
system.tol2bus.trans_dist::ReadSharedReq       191326                       # Transaction distribution
system.tol2bus.pkt_count_system.cpu.icache.mem_side::system.l2.cpu_side      6477793                       # Packet count per connected master and slave (bytes)
system.tol2bus.pkt_count_system.cpu.dcache.mem_side::system.l2.cpu_side     25668938                       # Packet count per connected master and slave (bytes)
system.tol2bus.pkt_count::total              32146731                       # Packet count per connected master and slave (bytes)
system.tol2bus.pkt_size_system.cpu.icache.mem_side::system.l2.cpu_side    276374912                       # Cumulative packet size per connected master and slave (bytes)
system.tol2bus.pkt_size_system.cpu.dcache.mem_side::system.l2.cpu_side   1089607872                       # Cumulative packet size per connected master and slave (bytes)
system.tol2bus.pkt_size::total             1365982784                       # Cumulative packet size per connected master and slave (bytes)
system.tol2bus.snoops                         8361799                       # Total snoops (count)
system.tol2bus.snoopTraffic                 534121216                       # Total snoop traffic (bytes)
system.tol2bus.snoop_fanout::samples         19077888                       # Request fanout histogram
system.tol2bus.snoop_fanout::mean            0.000084                       # Request fanout histogram
system.tol2bus.snoop_fanout::stdev           0.009175                       # Request fanout histogram
system.tol2bus.snoop_fanout::underflows             0      0.00%      0.00% # Request fanout histogram
system.tol2bus.snoop_fanout::0               19076282     99.99%     99.99% # Request fanout histogram
system.tol2bus.snoop_fanout::1                   1606      0.01%    100.00% # Request fanout histogram
system.tol2bus.snoop_fanout::2                      0      0.00%    100.00% # Request fanout histogram
system.tol2bus.snoop_fanout::3                      0      0.00%    100.00% # Request fanout histogram
system.tol2bus.snoop_fanout::4                      0      0.00%    100.00% # Request fanout histogram
system.tol2bus.snoop_fanout::overflows              0      0.00%    100.00% # Request fanout histogram
system.tol2bus.snoop_fanout::min_value              0                       # Request fanout histogram
system.tol2bus.snoop_fanout::max_value              1                       # Request fanout histogram
system.tol2bus.snoop_fanout::total           19077888                       # Request fanout histogram
system.tol2bus.reqLayer0.occupancy        21342713000                       # Layer occupancy (ticks)
system.tol2bus.reqLayer0.utilization              1.2                       # Layer utilization (%)
system.tol2bus.respLayer0.occupancy        3239152500                       # Layer occupancy (ticks)
system.tol2bus.respLayer0.utilization             0.2                       # Layer utilization (%)
system.tol2bus.respLayer1.occupancy       12834981000                       # Layer occupancy (ticks)
system.tol2bus.respLayer1.utilization             0.7                       # Layer utilization (%)

---------- End Simulation Statistics   ----------
